
Spectre (R) Circuit Simulator
Version 18.1.0.516.isr12 64bit -- 25 Oct 2019
Copyright (C) 1989-2019 Cadence Design Systems, Inc. All rights reserved worldwide. Cadence and Spectre are registered trademarks of Cadence Design Systems, Inc. All others are the property of their respective holders.

Includes RSA BSAFE(R) Cryptographic or Security Protocol Software from RSA Security, Inc.

User: saul   Host: s2424   HostID: ED824314   PID: 14520
Memory  available: 521.8140 MB  physical: 67.2864 GB
CPU Type: Intel(R) Xeon(R) CPU E5-2630 v3 @ 2.40GHz
        Socket: Processors [Frequency] (Hyperthreaded Processor)
        0:       0 [2650.3] ( 16 ),  1 [2663.5] ( 17 ),  2 [2660.3] ( 18 )
                 3 [2661.9] ( 19 ),  4 [2400.3] ( 20 ),  5 [2278.3] ( 21 )
                 6 [2671.4] ( 22 ),  7 [2742.8] ( 23 )
        1:       8 [2612.8] ( 24 ),  9 [2400.0] ( 25 ), 10 [2692.1] ( 26 )
                11 [2737.5] ( 27 ), 12 [2228.6] ( 28 ), 13 [2351.8] ( 29 )
                14 [2708.1] ( 30 ), 15 [2645.7] ( 31 )
        
System load averages (1min, 5min, 15min) : 1.1 %, 0.5 %, 0.5 %
Hyperthreading is enabled
HPC is enabled


Simulating `input.scs' on s2424 at 4:42:29 PM, Wed Dec 4, 2019 (process id: 14520).
Current working directory: /home/saul/projects/test_xfab1/Sim/CHARACTERIZATION/DC_BIAS_NMOS/adexl/results/data/Ocean.0/1/CHARACTERIZATION:DC_BIAS_NMOS:1/netlist
Command line:
    /pkg/cadence/installs/SPECTRE181/tools/bin/spectre -64 input.scs  \
        +escchars +log ../psf/spectre.out -format psfxl -raw ../psf  \
        ++aps +lqtimeout 900 -maxw 5 -maxn 5 -env ade -ahdllibdir  \
        /home/saul/projects/test_xfab1/Sim/CHARACTERIZATION/DC_BIAS_NMOS/adexl/results/data/Ocean.0/sharedData/Job34/ahdl/input.ahdlSimDB  \
        +logstatus

Loading /pkg/cadence/installs/SPECTRE181/tools.lnx86/cmi/lib/64bit/5.0/libinfineon_sh.so ...
Loading /pkg/cadence/installs/SPECTRE181/tools.lnx86/cmi/lib/64bit/5.0/libphilips_o_sh.so ...
Loading /pkg/cadence/installs/SPECTRE181/tools.lnx86/cmi/lib/64bit/5.0/libphilips_sh.so ...
Loading /pkg/cadence/installs/SPECTRE181/tools.lnx86/cmi/lib/64bit/5.0/libsparam_sh.so ...
Loading /pkg/cadence/installs/SPECTRE181/tools.lnx86/cmi/lib/64bit/5.0/libstmodels_sh.so ...
Reading file:  /home/saul/projects/test_xfab1/Sim/CHARACTERIZATION/DC_BIAS_NMOS/adexl/results/data/Ocean.0/1/CHARACTERIZATION:DC_BIAS_NMOS:1/netlist/input.scs
Reading file:  /pkg/cadence/installs/SPECTRE181/tools.lnx86/spectre/etc/configs/spectre.cfg
Reading file:  /pkg/xfab/XKIT/xh018/cadence/v8_0/spectre/v8_0_1/lpmos/config.scs
Reading file:  /pkg/xfab/XKIT/xh018/cadence/v8_0/spectre/v8_0_1/lpmos/param.scs
Reading file:  /pkg/xfab/XKIT/xh018/cadence/v8_0/spectre/v8_0_1/lpmos/bip.scs
Reading file:  /pkg/xfab/XKIT/xh018/cadence/v8_0/spectre/v8_0_1/lpmos/models/bip/tm_bip.scs
Reading file:  /pkg/xfab/XKIT/xh018/cadence/v8_0/spectre/v8_0_1/lpmos/models/bip/qpva.scs
Reading file:  /pkg/xfab/XKIT/xh018/cadence/v8_0/spectre/v8_0_1/lpmos/models/bip/qpvb.scs
Reading file:  /pkg/xfab/XKIT/xh018/cadence/v8_0/spectre/v8_0_1/lpmos/models/bip/qpvc.scs
Reading file:  /pkg/xfab/XKIT/xh018/cadence/v8_0/spectre/v8_0_1/lpmos/models/bip/qpva3.scs
Reading file:  /pkg/xfab/XKIT/xh018/cadence/v8_0/spectre/v8_0_1/lpmos/models/bip/qpvb3.scs
Reading file:  /pkg/xfab/XKIT/xh018/cadence/v8_0/spectre/v8_0_1/lpmos/models/bip/qpvc3.scs
Reading file:  /pkg/xfab/XKIT/xh018/cadence/v8_0/spectre/v8_0_1/lpmos/models/bip/qnva.scs
Reading file:  /pkg/xfab/XKIT/xh018/cadence/v8_0/spectre/v8_0_1/lpmos/models/bip/qnvb.scs
Reading file:  /pkg/xfab/XKIT/xh018/cadence/v8_0/spectre/v8_0_1/lpmos/models/bip/qnvb_npn.scs
Reading file:  /pkg/xfab/XKIT/xh018/cadence/v8_0/spectre/v8_0_1/lpmos/models/bip/qnvb_pnp.scs
Reading file:  /pkg/xfab/XKIT/xh018/cadence/v8_0/spectre/v8_0_1/lpmos/models/bip/qnvc.scs
Reading file:  /pkg/xfab/XKIT/xh018/cadence/v8_0/spectre/v8_0_1/lpmos/models/bip/qnvc_npn.scs
Reading file:  /pkg/xfab/XKIT/xh018/cadence/v8_0/spectre/v8_0_1/lpmos/models/bip/qnvc_pnp.scs
Reading file:  /pkg/xfab/XKIT/xh018/cadence/v8_0/spectre/v8_0_1/lpmos/models/bip/qpvhscr.scs
Reading file:  /pkg/xfab/XKIT/xh018/cadence/v8_0/spectre/v8_0_1/lpmos/models/bip/qpvascr.scs
Reading file:  /pkg/xfab/XKIT/xh018/cadence/v8_0/spectre/v8_0_1/lpmos/models/bip/qpvhbscr.scs
Reading file:  /pkg/xfab/XKIT/xh018/cadence/v8_0/spectre/v8_0_1/lpmos/models/bip/qpv_pa.scs
Reading file:  /pkg/xfab/XKIT/xh018/cadence/v8_0/spectre/v8_0_1/lpmos/models/bip/qpv_pb.scs
Reading file:  /pkg/xfab/XKIT/xh018/cadence/v8_0/spectre/v8_0_1/lpmos/models/bip/qpv_pc.scs
Reading file:  /pkg/xfab/XKIT/xh018/cadence/v8_0/spectre/v8_0_1/lpmos/models/bip/qpv_pd.scs
Reading file:  /pkg/xfab/XKIT/xh018/cadence/v8_0/spectre/v8_0_1/lpmos/models/bip/qpv_pe.scs
Reading file:  /pkg/xfab/XKIT/xh018/cadence/v8_0/spectre/v8_0_1/lpmos/models/bip/qpv_pf.scs
Reading file:  /pkg/xfab/XKIT/xh018/cadence/v8_0/spectre/v8_0_1/lpmos/models/bip/qpl_pa.scs
Reading file:  /pkg/xfab/XKIT/xh018/cadence/v8_0/spectre/v8_0_1/lpmos/models/bip/qpl_pb.scs
Reading file:  /pkg/xfab/XKIT/xh018/cadence/v8_0/spectre/v8_0_1/lpmos/models/bip/qpl_pc.scs
Reading file:  /pkg/xfab/XKIT/xh018/cadence/v8_0/spectre/v8_0_1/lpmos/models/bip/qpl_pd.scs
Reading file:  /pkg/xfab/XKIT/xh018/cadence/v8_0/spectre/v8_0_1/lpmos/models/bip/qpl_pe.scs
Reading file:  /pkg/xfab/XKIT/xh018/cadence/v8_0/spectre/v8_0_1/lpmos/models/bip/qpl_pf.scs
Reading file:  /pkg/xfab/XKIT/xh018/cadence/v8_0/spectre/v8_0_1/lpmos/models/bip/qnl_pa.scs
Reading file:  /pkg/xfab/XKIT/xh018/cadence/v8_0/spectre/v8_0_1/lpmos/models/bip/qnl_pb.scs
Reading file:  /pkg/xfab/XKIT/xh018/cadence/v8_0/spectre/v8_0_1/lpmos/models/bip/qnl_pc.scs
Reading file:  /pkg/xfab/XKIT/xh018/cadence/v8_0/spectre/v8_0_1/lpmos/models/bip/qnl_pd.scs
Reading file:  /pkg/xfab/XKIT/xh018/cadence/v8_0/spectre/v8_0_1/lpmos/models/bip/qnl_pe.scs
Reading file:  /pkg/xfab/XKIT/xh018/cadence/v8_0/spectre/v8_0_1/lpmos/models/bip/qnl_pf.scs
Reading file:  /pkg/xfab/XKIT/xh018/cadence/v8_0/spectre/v8_0_1/lpmos/cap.scs
Reading file:  /pkg/xfab/XKIT/xh018/cadence/v8_0/spectre/v8_0_1/lpmos/models/cap/tm_cap.scs
Reading file:  /pkg/xfab/XKIT/xh018/cadence/v8_0/spectre/v8_0_1/lpmos/models/cap/csandwt3.scs
Reading file:  /pkg/xfab/XKIT/xh018/cadence/v8_0/spectre/v8_0_1/lpmos/models/cap/csandwt4.scs
Reading file:  /pkg/xfab/XKIT/xh018/cadence/v8_0/spectre/v8_0_1/lpmos/models/cap/csandwt5.scs
Reading file:  /pkg/xfab/XKIT/xh018/cadence/v8_0/spectre/v8_0_1/lpmos/models/cap/csf2p.scs
Reading file:  /pkg/xfab/XKIT/xh018/cadence/v8_0/spectre/v8_0_1/lpmos/models/cap/csf3p.scs
Reading file:  /pkg/xfab/XKIT/xh018/cadence/v8_0/spectre/v8_0_1/lpmos/models/cap/csf3.scs
Reading file:  /pkg/xfab/XKIT/xh018/cadence/v8_0/spectre/v8_0_1/lpmos/models/cap/csf4.scs
Reading file:  /pkg/xfab/XKIT/xh018/cadence/v8_0/spectre/v8_0_1/lpmos/models/cap/csf5.scs
Reading file:  /pkg/xfab/XKIT/xh018/cadence/v8_0/spectre/v8_0_1/lpmos/models/cap/csft4.scs
Reading file:  /pkg/xfab/XKIT/xh018/cadence/v8_0/spectre/v8_0_1/lpmos/models/cap/csft5.scs
Reading file:  /pkg/xfab/XKIT/xh018/cadence/v8_0/spectre/v8_0_1/lpmos/models/cap/csft6.scs
Reading file:  /pkg/xfab/XKIT/xh018/cadence/v8_0/spectre/v8_0_1/lpmos/models/cap/csf3a.scs
Reading file:  /pkg/xfab/XKIT/xh018/cadence/v8_0/spectre/v8_0_1/lpmos/models/cap/csf4a.scs
Reading file:  /pkg/xfab/XKIT/xh018/cadence/v8_0/spectre/v8_0_1/lpmos/models/cap/csf5a.scs
Reading file:  /pkg/xfab/XKIT/xh018/cadence/v8_0/spectre/v8_0_1/lpmos/models/cap/csft4a.scs
Reading file:  /pkg/xfab/XKIT/xh018/cadence/v8_0/spectre/v8_0_1/lpmos/models/cap/csft5a.scs
Reading file:  /pkg/xfab/XKIT/xh018/cadence/v8_0/spectre/v8_0_1/lpmos/models/cap/csft6a.scs
Reading file:  /pkg/xfab/XKIT/xh018/cadence/v8_0/spectre/v8_0_1/lpmos/models/cap/cmm3.scs
Reading file:  /pkg/xfab/XKIT/xh018/cadence/v8_0/spectre/v8_0_1/lpmos/models/cap/cmm4t.scs
Reading file:  /pkg/xfab/XKIT/xh018/cadence/v8_0/spectre/v8_0_1/lpmos/models/cap/cmm4.scs
Reading file:  /pkg/xfab/XKIT/xh018/cadence/v8_0/spectre/v8_0_1/lpmos/models/cap/cmm5t.scs
Reading file:  /pkg/xfab/XKIT/xh018/cadence/v8_0/spectre/v8_0_1/lpmos/models/cap/cmm6t.scs
Reading file:  /pkg/xfab/XKIT/xh018/cadence/v8_0/spectre/v8_0_1/lpmos/models/cap/cdmm4.scs
Reading file:  /pkg/xfab/XKIT/xh018/cadence/v8_0/spectre/v8_0_1/lpmos/models/cap/cdmm4t.scs
Reading file:  /pkg/xfab/XKIT/xh018/cadence/v8_0/spectre/v8_0_1/lpmos/models/cap/ctmm5.scs
Reading file:  /pkg/xfab/XKIT/xh018/cadence/v8_0/spectre/v8_0_1/lpmos/models/cap/ctmm5t.scs
Reading file:  /pkg/xfab/XKIT/xh018/cadence/v8_0/spectre/v8_0_1/lpmos/models/cap/cmmh3.scs
Reading file:  /pkg/xfab/XKIT/xh018/cadence/v8_0/spectre/v8_0_1/lpmos/models/cap/cmmh4t.scs
Reading file:  /pkg/xfab/XKIT/xh018/cadence/v8_0/spectre/v8_0_1/lpmos/models/cap/cmmh4.scs
Reading file:  /pkg/xfab/XKIT/xh018/cadence/v8_0/spectre/v8_0_1/lpmos/models/cap/cmmh5t.scs
Reading file:  /pkg/xfab/XKIT/xh018/cadence/v8_0/spectre/v8_0_1/lpmos/models/cap/cmmh6t.scs
Reading file:  /pkg/xfab/XKIT/xh018/cadence/v8_0/spectre/v8_0_1/lpmos/models/cap/cdmmh4.scs
Reading file:  /pkg/xfab/XKIT/xh018/cadence/v8_0/spectre/v8_0_1/lpmos/models/cap/cdmmh4t.scs
Reading file:  /pkg/xfab/XKIT/xh018/cadence/v8_0/spectre/v8_0_1/lpmos/models/cap/ctmmh5.scs
Reading file:  /pkg/xfab/XKIT/xh018/cadence/v8_0/spectre/v8_0_1/lpmos/models/cap/ctmmh5t.scs
Reading file:  /pkg/xfab/XKIT/xh018/cadence/v8_0/spectre/v8_0_1/lpmos/models/cap/mosvc.scs
Reading file:  /pkg/xfab/XKIT/xh018/cadence/v8_0/spectre/v8_0_1/lpmos/models/cap/mosvc_pmos.scs
Reading file:  /pkg/xfab/XKIT/xh018/cadence/v8_0/spectre/v8_0_1/lpmos/models/cap/mosvci.scs
Reading file:  /pkg/xfab/XKIT/xh018/cadence/v8_0/spectre/v8_0_1/lpmos/models/cap/mosvci_nmos.scs
Reading file:  /pkg/xfab/XKIT/xh018/cadence/v8_0/spectre/v8_0_1/lpmos/models/cap/mosvci_m.scs
Reading file:  /pkg/xfab/XKIT/xh018/cadence/v8_0/spectre/v8_0_1/lpmos/models/cap/mosvc3.scs
Reading file:  /pkg/xfab/XKIT/xh018/cadence/v8_0/spectre/v8_0_1/lpmos/models/cap/mosvc3_pmos.scs
Reading file:  /pkg/xfab/XKIT/xh018/cadence/v8_0/spectre/v8_0_1/lpmos/models/cap/mosvc3i.scs
Reading file:  /pkg/xfab/XKIT/xh018/cadence/v8_0/spectre/v8_0_1/lpmos/models/cap/mosvc3i_nmos.scs
Reading file:  /pkg/xfab/XKIT/xh018/cadence/v8_0/spectre/v8_0_1/lpmos/models/cap/mosvc3i_m.scs
Reading file:  /pkg/xfab/XKIT/xh018/cadence/v8_0/spectre/v8_0_1/lpmos/models/cap/cpod.scs
Reading file:  /pkg/xfab/XKIT/xh018/cadence/v8_0/spectre/v8_0_1/lpmos/models/cap/cpod_i.scs
Reading file:  /pkg/xfab/XKIT/xh018/cadence/v8_0/spectre/v8_0_1/lpmos/models/cap/cpodhv.scs
Reading file:  /pkg/xfab/XKIT/xh018/cadence/v8_0/spectre/v8_0_1/lpmos/models/cap/cpodhv_i.scs
Reading file:  /pkg/xfab/XKIT/xh018/cadence/v8_0/spectre/v8_0_1/lpmos/models/cap/cp1sub.scs
Reading file:  /pkg/xfab/XKIT/xh018/cadence/v8_0/spectre/v8_0_1/lpmos/models/cap/cp1suba.scs
Reading file:  /pkg/xfab/XKIT/xh018/cadence/v8_0/spectre/v8_0_1/lpmos/models/cap/cp1subp.scs
Reading file:  /pkg/xfab/XKIT/xh018/cadence/v8_0/spectre/v8_0_1/lpmos/models/cap/tag_25v.scs
Reading file:  /pkg/xfab/XKIT/xh018/cadence/v8_0/spectre/v8_0_1/lpmos/models/cap/tag_60v.scs
Reading file:  /pkg/xfab/XKIT/xh018/cadence/v8_0/spectre/v8_0_1/lpmos/dio.scs
Reading file:  /pkg/xfab/XKIT/xh018/cadence/v8_0/spectre/v8_0_1/lpmos/models/dio/tm_dio.scs
Reading file:  /pkg/xfab/XKIT/xh018/cadence/v8_0/spectre/v8_0_1/lpmos/models/dio/dn.scs
Reading file:  /pkg/xfab/XKIT/xh018/cadence/v8_0/spectre/v8_0_1/lpmos/models/dio/dp.scs
Reading file:  /pkg/xfab/XKIT/xh018/cadence/v8_0/spectre/v8_0_1/lpmos/models/dio/dnw.scs
Reading file:  /pkg/xfab/XKIT/xh018/cadence/v8_0/spectre/v8_0_1/lpmos/models/dio/dn3.scs
Reading file:  /pkg/xfab/XKIT/xh018/cadence/v8_0/spectre/v8_0_1/lpmos/models/dio/dnn3.scs
Reading file:  /pkg/xfab/XKIT/xh018/cadence/v8_0/spectre/v8_0_1/lpmos/models/dio/dp3.scs
Reading file:  /pkg/xfab/XKIT/xh018/cadence/v8_0/spectre/v8_0_1/lpmos/models/dio/dnw3.scs
Reading file:  /pkg/xfab/XKIT/xh018/cadence/v8_0/spectre/v8_0_1/lpmos/models/dio/ddnwmv.scs
Reading file:  /pkg/xfab/XKIT/xh018/cadence/v8_0/spectre/v8_0_1/lpmos/models/dio/dpdnwmv.scs
Reading file:  /pkg/xfab/XKIT/xh018/cadence/v8_0/spectre/v8_0_1/lpmos/models/dio/dipdnwmv.scs
Reading file:  /pkg/xfab/XKIT/xh018/cadence/v8_0/spectre/v8_0_1/lpmos/models/dio/ddnw.scs
Reading file:  /pkg/xfab/XKIT/xh018/cadence/v8_0/spectre/v8_0_1/lpmos/models/dio/dpdnw.scs
Reading file:  /pkg/xfab/XKIT/xh018/cadence/v8_0/spectre/v8_0_1/lpmos/models/dio/dipdnw.scs
Reading file:  /pkg/xfab/XKIT/xh018/cadence/v8_0/spectre/v8_0_1/lpmos/models/dio/dnhpw.scs
Reading file:  /pkg/xfab/XKIT/xh018/cadence/v8_0/spectre/v8_0_1/lpmos/models/dio/dnhpwa.scs
Reading file:  /pkg/xfab/XKIT/xh018/cadence/v8_0/spectre/v8_0_1/lpmos/models/dio/dphnw.scs
Reading file:  /pkg/xfab/XKIT/xh018/cadence/v8_0/spectre/v8_0_1/lpmos/models/dio/dphnwa.scs
Reading file:  /pkg/xfab/XKIT/xh018/cadence/v8_0/spectre/v8_0_1/lpmos/models/dio/dhpw.scs
Reading file:  /pkg/xfab/XKIT/xh018/cadence/v8_0/spectre/v8_0_1/lpmos/models/dio/dhnw.scs
Reading file:  /pkg/xfab/XKIT/xh018/cadence/v8_0/spectre/v8_0_1/lpmos/models/dio/dndf.scs
Reading file:  /pkg/xfab/XKIT/xh018/cadence/v8_0/spectre/v8_0_1/lpmos/models/dio/dpdwhn.scs
Reading file:  /pkg/xfab/XKIT/xh018/cadence/v8_0/spectre/v8_0_1/lpmos/models/dio/dwhn.scs
Reading file:  /pkg/xfab/XKIT/xh018/cadence/v8_0/spectre/v8_0_1/lpmos/models/dio/dpwhn.scs
Reading file:  /pkg/xfab/XKIT/xh018/cadence/v8_0/spectre/v8_0_1/lpmos/models/dio/dpndf.scs
Reading file:  /pkg/xfab/XKIT/xh018/cadence/v8_0/spectre/v8_0_1/lpmos/models/dio/dpdddnw.scs
Reading file:  /pkg/xfab/XKIT/xh018/cadence/v8_0/spectre/v8_0_1/lpmos/models/dio/ddpldnw.scs
Reading file:  /pkg/xfab/XKIT/xh018/cadence/v8_0/spectre/v8_0_1/lpmos/models/dio/dn3dpl.scs
Reading file:  /pkg/xfab/XKIT/xh018/cadence/v8_0/spectre/v8_0_1/lpmos/models/dio/dbn.scs
Reading file:  /pkg/xfab/XKIT/xh018/cadence/v8_0/spectre/v8_0_1/lpmos/models/dio/dpol.scs
Reading file:  /pkg/xfab/XKIT/xh018/cadence/v8_0/spectre/v8_0_1/lpmos/models/dio/dnpdd_scr.scs
Reading file:  /pkg/xfab/XKIT/xh018/cadence/v8_0/spectre/v8_0_1/lpmos/models/dio/dpdd_scr.scs
Reading file:  /pkg/xfab/XKIT/xh018/cadence/v8_0/spectre/v8_0_1/lpmos/models/dio/dsb.scs
Reading file:  /pkg/xfab/XKIT/xh018/cadence/v8_0/spectre/v8_0_1/lpmos/models/dio/dsba.scs
Reading file:  /pkg/xfab/XKIT/xh018/cadence/v8_0/spectre/v8_0_1/lpmos/models/dio/dsba_qp1.scs
Reading file:  /pkg/xfab/XKIT/xh018/cadence/v8_0/spectre/v8_0_1/lpmos/models/dio/dnp20.scs
Reading file:  /pkg/xfab/XKIT/xh018/cadence/v8_0/spectre/v8_0_1/lpmos/models/dio/dpp20.scs
Reading file:  /pkg/xfab/XKIT/xh018/cadence/v8_0/spectre/v8_0_1/lpmos/models/dio/dn3sci.scs
Reading file:  /pkg/xfab/XKIT/xh018/cadence/v8_0/spectre/v8_0_1/lpmos/models/dio/dscidnwmv.scs
Reading file:  /pkg/xfab/XKIT/xh018/cadence/v8_0/spectre/v8_0_1/lpmos/mos.scs
Reading file:  /pkg/xfab/XKIT/xh018/cadence/v8_0/spectre/v8_0_1/lpmos/models/mos/tm_mos.scs
Reading file:  /pkg/xfab/XKIT/xh018/cadence/v8_0/spectre/v8_0_1/lpmos/models/mos/ne.scs
Reading file:  /pkg/xfab/XKIT/xh018/cadence/v8_0/spectre/v8_0_1/lpmos/models/mos/nei.scs
Reading file:  /pkg/xfab/XKIT/xh018/cadence/v8_0/spectre/v8_0_1/lpmos/models/mos/nei_6.scs
Reading file:  /pkg/xfab/XKIT/xh018/cadence/v8_0/spectre/v8_0_1/lpmos/models/mos/nei_m_6.scs
Reading file:  /pkg/xfab/XKIT/xh018/cadence/v8_0/spectre/v8_0_1/lpmos/models/mos/pe.scs
Reading file:  /pkg/xfab/XKIT/xh018/cadence/v8_0/spectre/v8_0_1/lpmos/models/mos/pe_5.scs
Reading file:  /pkg/xfab/XKIT/xh018/cadence/v8_0/spectre/v8_0_1/lpmos/models/mos/pei.scs
Reading file:  /pkg/xfab/XKIT/xh018/cadence/v8_0/spectre/v8_0_1/lpmos/models/mos/pei_5.scs
Reading file:  /pkg/xfab/XKIT/xh018/cadence/v8_0/spectre/v8_0_1/lpmos/models/mos/pei_m_5.scs
Reading file:  /pkg/xfab/XKIT/xh018/cadence/v8_0/spectre/v8_0_1/lpmos/models/mos/nel.scs
Reading file:  /pkg/xfab/XKIT/xh018/cadence/v8_0/spectre/v8_0_1/lpmos/models/mos/neli.scs
Reading file:  /pkg/xfab/XKIT/xh018/cadence/v8_0/spectre/v8_0_1/lpmos/models/mos/neli_6.scs
Reading file:  /pkg/xfab/XKIT/xh018/cadence/v8_0/spectre/v8_0_1/lpmos/models/mos/neli_m_6.scs
Reading file:  /pkg/xfab/XKIT/xh018/cadence/v8_0/spectre/v8_0_1/lpmos/models/mos/pel.scs
Reading file:  /pkg/xfab/XKIT/xh018/cadence/v8_0/spectre/v8_0_1/lpmos/models/mos/pel_5.scs
Reading file:  /pkg/xfab/XKIT/xh018/cadence/v8_0/spectre/v8_0_1/lpmos/models/mos/peli.scs
Reading file:  /pkg/xfab/XKIT/xh018/cadence/v8_0/spectre/v8_0_1/lpmos/models/mos/peli_5.scs
Reading file:  /pkg/xfab/XKIT/xh018/cadence/v8_0/spectre/v8_0_1/lpmos/models/mos/peli_m_5.scs
Reading file:  /pkg/xfab/XKIT/xh018/cadence/v8_0/spectre/v8_0_1/lpmos/models/mos/nn3.scs
Reading file:  /pkg/xfab/XKIT/xh018/cadence/v8_0/spectre/v8_0_1/lpmos/models/mos/ne3.scs
Reading file:  /pkg/xfab/XKIT/xh018/cadence/v8_0/spectre/v8_0_1/lpmos/models/mos/ne3i.scs
Reading file:  /pkg/xfab/XKIT/xh018/cadence/v8_0/spectre/v8_0_1/lpmos/models/mos/ne3i_6.scs
Reading file:  /pkg/xfab/XKIT/xh018/cadence/v8_0/spectre/v8_0_1/lpmos/models/mos/ne3i_m_6.scs
Reading file:  /pkg/xfab/XKIT/xh018/cadence/v8_0/spectre/v8_0_1/lpmos/models/mos/pe3.scs
Reading file:  /pkg/xfab/XKIT/xh018/cadence/v8_0/spectre/v8_0_1/lpmos/models/mos/pe3_5.scs
Reading file:  /pkg/xfab/XKIT/xh018/cadence/v8_0/spectre/v8_0_1/lpmos/models/mos/pe3i.scs
Reading file:  /pkg/xfab/XKIT/xh018/cadence/v8_0/spectre/v8_0_1/lpmos/models/mos/pe3i_5.scs
Reading file:  /pkg/xfab/XKIT/xh018/cadence/v8_0/spectre/v8_0_1/lpmos/models/mos/pe3i_m_5.scs
Reading file:  /pkg/xfab/XKIT/xh018/cadence/v8_0/spectre/v8_0_1/lpmos/models/mos/pe3ln.scs
Reading file:  /pkg/xfab/XKIT/xh018/cadence/v8_0/spectre/v8_0_1/lpmos/models/mos/pe3ln_5.scs
Reading file:  /pkg/xfab/XKIT/xh018/cadence/v8_0/spectre/v8_0_1/lpmos/models/mos/pe3lni.scs
Reading file:  /pkg/xfab/XKIT/xh018/cadence/v8_0/spectre/v8_0_1/lpmos/models/mos/pe3lni_5.scs
Reading file:  /pkg/xfab/XKIT/xh018/cadence/v8_0/spectre/v8_0_1/lpmos/models/mos/pe3lni_m_5.scs
Reading file:  /pkg/xfab/XKIT/xh018/cadence/v8_0/spectre/v8_0_1/lpmos/models/mos/nd3.scs
Reading file:  /pkg/xfab/XKIT/xh018/cadence/v8_0/spectre/v8_0_1/lpmos/models/mos/nd3_mos1.scs
Reading file:  /pkg/xfab/XKIT/xh018/cadence/v8_0/spectre/v8_0_1/lpmos/models/mos/nd3_mos2.scs
Reading file:  /pkg/xfab/XKIT/xh018/cadence/v8_0/spectre/v8_0_1/lpmos/models/mos/nd3i.scs
Reading file:  /pkg/xfab/XKIT/xh018/cadence/v8_0/spectre/v8_0_1/lpmos/models/mos/nd3i_mos1.scs
Reading file:  /pkg/xfab/XKIT/xh018/cadence/v8_0/spectre/v8_0_1/lpmos/models/mos/nd3i_mos2.scs
Reading file:  /pkg/xfab/XKIT/xh018/cadence/v8_0/spectre/v8_0_1/lpmos/models/mos/nd3i_6.scs
Reading file:  /pkg/xfab/XKIT/xh018/cadence/v8_0/spectre/v8_0_1/lpmos/models/mos/nd3i_m_6.scs
Reading file:  /pkg/xfab/XKIT/xh018/cadence/v8_0/spectre/v8_0_1/lpmos/models/mos/nelna.scs
Reading file:  /pkg/xfab/XKIT/xh018/cadence/v8_0/spectre/v8_0_1/lpmos/models/mos/nelnai.scs
Reading file:  /pkg/xfab/XKIT/xh018/cadence/v8_0/spectre/v8_0_1/lpmos/models/mos/nelnai_6.scs
Reading file:  /pkg/xfab/XKIT/xh018/cadence/v8_0/spectre/v8_0_1/lpmos/models/mos/nelnai_m_6.scs
Reading file:  /pkg/xfab/XKIT/xh018/cadence/v8_0/spectre/v8_0_1/lpmos/models/mos/ne3lna.scs
Reading file:  /pkg/xfab/XKIT/xh018/cadence/v8_0/spectre/v8_0_1/lpmos/models/mos/ne3lnai.scs
Reading file:  /pkg/xfab/XKIT/xh018/cadence/v8_0/spectre/v8_0_1/lpmos/models/mos/ne3lnai_6.scs
Reading file:  /pkg/xfab/XKIT/xh018/cadence/v8_0/spectre/v8_0_1/lpmos/models/mos/ne3lnai_m_6.scs
Reading file:  /pkg/xfab/XKIT/xh018/cadence/v8_0/spectre/v8_0_1/lpmos/models/mos/pe3lna.scs
Reading file:  /pkg/xfab/XKIT/xh018/cadence/v8_0/spectre/v8_0_1/lpmos/models/mos/pe3lna_5.scs
Reading file:  /pkg/xfab/XKIT/xh018/cadence/v8_0/spectre/v8_0_1/lpmos/models/mos/pe3lnai.scs
Reading file:  /pkg/xfab/XKIT/xh018/cadence/v8_0/spectre/v8_0_1/lpmos/models/mos/pe3lnai_5.scs
Reading file:  /pkg/xfab/XKIT/xh018/cadence/v8_0/spectre/v8_0_1/lpmos/models/mos/pe3lnai_m_5.scs
Reading file:  /pkg/xfab/XKIT/xh018/cadence/v8_0/spectre/v8_0_1/lpmos/models/mos/nmma.scs
Reading file:  /pkg/xfab/XKIT/xh018/cadence/v8_0/spectre/v8_0_1/lpmos/models/mos/jf_nmma.scs
Reading file:  /pkg/xfab/XKIT/xh018/cadence/v8_0/spectre/v8_0_1/lpmos/models/mos/nmma_bjt.scs
Reading file:  /pkg/xfab/XKIT/xh018/cadence/v8_0/spectre/v8_0_1/lpmos/models/mos/pmma.scs
Reading file:  /pkg/xfab/XKIT/xh018/cadence/v8_0/spectre/v8_0_1/lpmos/models/mos/jf_pmma.scs
Reading file:  /pkg/xfab/XKIT/xh018/cadence/v8_0/spectre/v8_0_1/lpmos/models/mos/pmma_bjt.scs
Reading file:  /pkg/xfab/XKIT/xh018/cadence/v8_0/spectre/v8_0_1/lpmos/models/mos/nedi.scs
Reading file:  /pkg/xfab/XKIT/xh018/cadence/v8_0/spectre/v8_0_1/lpmos/models/mos/nedi_bjt.scs
Reading file:  /pkg/xfab/XKIT/xh018/cadence/v8_0/spectre/v8_0_1/lpmos/models/mos/nedia.scs
Reading file:  /pkg/xfab/XKIT/xh018/cadence/v8_0/spectre/v8_0_1/lpmos/models/mos/nedia_bjt.scs
Reading file:  /pkg/xfab/XKIT/xh018/cadence/v8_0/spectre/v8_0_1/lpmos/models/mos/ped2.scs
Reading file:  /pkg/xfab/XKIT/xh018/cadence/v8_0/spectre/v8_0_1/lpmos/models/mos/ped2_bjt.scs
Reading file:  /pkg/xfab/XKIT/xh018/cadence/v8_0/spectre/v8_0_1/lpmos/models/mos/ped.scs
Reading file:  /pkg/xfab/XKIT/xh018/cadence/v8_0/spectre/v8_0_1/lpmos/models/mos/ped_bjt.scs
Reading file:  /pkg/xfab/XKIT/xh018/cadence/v8_0/spectre/v8_0_1/lpmos/models/mos/nhv.scs
Reading file:  /pkg/xfab/XKIT/xh018/cadence/v8_0/spectre/v8_0_1/lpmos/models/mos/nhv_mos2.scs
Reading file:  /pkg/xfab/XKIT/xh018/cadence/v8_0/spectre/v8_0_1/lpmos/models/mos/nhv_bjt.scs
Reading file:  /pkg/xfab/XKIT/xh018/cadence/v8_0/spectre/v8_0_1/lpmos/models/mos/nhhv.scs
Reading file:  /pkg/xfab/XKIT/xh018/cadence/v8_0/spectre/v8_0_1/lpmos/models/mos/nhhv_mos2.scs
Reading file:  /pkg/xfab/XKIT/xh018/cadence/v8_0/spectre/v8_0_1/lpmos/models/mos/nhhv_bjt.scs
Reading file:  /pkg/xfab/XKIT/xh018/cadence/v8_0/spectre/v8_0_1/lpmos/models/mos/nmmc.scs
Reading file:  /pkg/xfab/XKIT/xh018/cadence/v8_0/spectre/v8_0_1/lpmos/models/mos/nmmc_mos2.scs
Reading file:  /pkg/xfab/XKIT/xh018/cadence/v8_0/spectre/v8_0_1/lpmos/models/mos/nmmc_bjt.scs
Reading file:  /pkg/xfab/XKIT/xh018/cadence/v8_0/spectre/v8_0_1/lpmos/models/mos/nmmd.scs
Reading file:  /pkg/xfab/XKIT/xh018/cadence/v8_0/spectre/v8_0_1/lpmos/models/mos/nmmd_mos2.scs
Reading file:  /pkg/xfab/XKIT/xh018/cadence/v8_0/spectre/v8_0_1/lpmos/models/mos/nmmd_bjt.scs
Reading file:  /pkg/xfab/XKIT/xh018/cadence/v8_0/spectre/v8_0_1/lpmos/models/mos/nmc.scs
Reading file:  /pkg/xfab/XKIT/xh018/cadence/v8_0/spectre/v8_0_1/lpmos/models/mos/nmc_mos2.scs
Reading file:  /pkg/xfab/XKIT/xh018/cadence/v8_0/spectre/v8_0_1/lpmos/models/mos/nmc_bjt.scs
Reading file:  /pkg/xfab/XKIT/xh018/cadence/v8_0/spectre/v8_0_1/lpmos/models/mos/nma.scs
Reading file:  /pkg/xfab/XKIT/xh018/cadence/v8_0/spectre/v8_0_1/lpmos/models/mos/nma_bjt.scs
Reading file:  /pkg/xfab/XKIT/xh018/cadence/v8_0/spectre/v8_0_1/lpmos/models/mos/phv.scs
Reading file:  /pkg/xfab/XKIT/xh018/cadence/v8_0/spectre/v8_0_1/lpmos/models/mos/phv_mos2.scs
Reading file:  /pkg/xfab/XKIT/xh018/cadence/v8_0/spectre/v8_0_1/lpmos/models/mos/phv_bjt.scs
Reading file:  /pkg/xfab/XKIT/xh018/cadence/v8_0/spectre/v8_0_1/lpmos/models/mos/phhv.scs
Reading file:  /pkg/xfab/XKIT/xh018/cadence/v8_0/spectre/v8_0_1/lpmos/models/mos/phhv_mos2.scs
Reading file:  /pkg/xfab/XKIT/xh018/cadence/v8_0/spectre/v8_0_1/lpmos/models/mos/phhv_bjt.scs
Reading file:  /pkg/xfab/XKIT/xh018/cadence/v8_0/spectre/v8_0_1/lpmos/models/mos/pmc.scs
Reading file:  /pkg/xfab/XKIT/xh018/cadence/v8_0/spectre/v8_0_1/lpmos/models/mos/pmc_mos2.scs
Reading file:  /pkg/xfab/XKIT/xh018/cadence/v8_0/spectre/v8_0_1/lpmos/models/mos/pmc_bjt.scs
Reading file:  /pkg/xfab/XKIT/xh018/cadence/v8_0/spectre/v8_0_1/lpmos/models/mos/pmmc.scs
Reading file:  /pkg/xfab/XKIT/xh018/cadence/v8_0/spectre/v8_0_1/lpmos/models/mos/pmmc_mos2.scs
Reading file:  /pkg/xfab/XKIT/xh018/cadence/v8_0/spectre/v8_0_1/lpmos/models/mos/pmmc_bjt.scs
Reading file:  /pkg/xfab/XKIT/xh018/cadence/v8_0/spectre/v8_0_1/lpmos/models/mos/pma.scs
Reading file:  /pkg/xfab/XKIT/xh018/cadence/v8_0/spectre/v8_0_1/lpmos/models/mos/pma_bjt.scs
Reading file:  /pkg/xfab/XKIT/xh018/cadence/v8_0/spectre/v8_0_1/lpmos/models/mos/pmb.scs
Reading file:  /pkg/xfab/XKIT/xh018/cadence/v8_0/spectre/v8_0_1/lpmos/models/mos/nesvt.scs
Reading file:  /pkg/xfab/XKIT/xh018/cadence/v8_0/spectre/v8_0_1/lpmos/models/mos/nesvti.scs
Reading file:  /pkg/xfab/XKIT/xh018/cadence/v8_0/spectre/v8_0_1/lpmos/models/mos/nesvti_6.scs
Reading file:  /pkg/xfab/XKIT/xh018/cadence/v8_0/spectre/v8_0_1/lpmos/models/mos/nesvti_m_6.scs
Reading file:  /pkg/xfab/XKIT/xh018/cadence/v8_0/spectre/v8_0_1/lpmos/models/mos/pesvt.scs
Reading file:  /pkg/xfab/XKIT/xh018/cadence/v8_0/spectre/v8_0_1/lpmos/models/mos/pesvt_5.scs
Reading file:  /pkg/xfab/XKIT/xh018/cadence/v8_0/spectre/v8_0_1/lpmos/models/mos/pesvti.scs
Reading file:  /pkg/xfab/XKIT/xh018/cadence/v8_0/spectre/v8_0_1/lpmos/models/mos/pesvti_5.scs
Reading file:  /pkg/xfab/XKIT/xh018/cadence/v8_0/spectre/v8_0_1/lpmos/models/mos/pesvti_m_5.scs
Reading file:  /pkg/xfab/XKIT/xh018/cadence/v8_0/spectre/v8_0_1/lpmos/models/mos/nhvd.scs
Reading file:  /pkg/xfab/XKIT/xh018/cadence/v8_0/spectre/v8_0_1/lpmos/models/mos/nhvd_bjt.scs
Reading file:  /pkg/xfab/XKIT/xh018/cadence/v8_0/spectre/v8_0_1/lpmos/models/mos/nhhvd.scs
Reading file:  /pkg/xfab/XKIT/xh018/cadence/v8_0/spectre/v8_0_1/lpmos/models/mos/nhhvd_bjt.scs
Reading file:  /pkg/xfab/XKIT/xh018/cadence/v8_0/spectre/v8_0_1/lpmos/photo.scs
Reading file:  /pkg/xfab/XKIT/xh018/cadence/v8_0/spectre/v8_0_1/lpmos/models/photo/tm_pho.scs
Reading file:  /pkg/xfab/XKIT/xh018/cadence/v8_0/spectre/v8_0_1/lpmos/models/photo/dphoa.scs
Reading file:  /pkg/xfab/XKIT/xh018/cadence/v8_0/spectre/v8_0_1/lpmos/models/photo/dpho.va
Reading link:  /pkg/cadence/installs/SPECTRE181/tools.lnx86/spectre/etc/ahdl/discipline.h
Reading file:  /pkg/cadence/installs/SPECTRE181/tools.lnx86/spectre/etc/ahdl/disciplines.vams
Reading link:  /pkg/cadence/installs/SPECTRE181/tools.lnx86/spectre/etc/ahdl/constants.h
Reading file:  /pkg/cadence/installs/SPECTRE181/tools.lnx86/spectre/etc/ahdl/constants.vams
Reading file:  /pkg/xfab/XKIT/xh018/cadence/v8_0/spectre/v8_0_1/lpmos/models/photo/dphob.scs
Reading file:  /pkg/xfab/XKIT/xh018/cadence/v8_0/spectre/v8_0_1/lpmos/models/photo/dphoc.scs
Reading file:  /pkg/xfab/XKIT/xh018/cadence/v8_0/spectre/v8_0_1/lpmos/models/photo/iphoto_uv.va
Reading file:  /pkg/xfab/XKIT/xh018/cadence/v8_0/spectre/v8_0_1/lpmos/models/photo/dphoc_cat.scs
Reading file:  /pkg/xfab/XKIT/xh018/cadence/v8_0/spectre/v8_0_1/lpmos/models/photo/dphoc0.scs
Reading file:  /pkg/xfab/XKIT/xh018/cadence/v8_0/spectre/v8_0_1/lpmos/models/photo/dphoc0_cat.scs
Reading file:  /pkg/xfab/XKIT/xh018/cadence/v8_0/spectre/v8_0_1/lpmos/models/photo/dphocfp.scs
Reading file:  /pkg/xfab/XKIT/xh018/cadence/v8_0/spectre/v8_0_1/lpmos/models/photo/dphocfp_cat.scs
Reading file:  /pkg/xfab/XKIT/xh018/cadence/v8_0/spectre/v8_0_1/lpmos/models/photo/dphod.scs
Reading file:  /pkg/xfab/XKIT/xh018/cadence/v8_0/spectre/v8_0_1/lpmos/models/photo/dphod_an1.scs
Reading file:  /pkg/xfab/XKIT/xh018/cadence/v8_0/spectre/v8_0_1/lpmos/models/photo/dphod_an2.scs
Reading file:  /pkg/xfab/XKIT/xh018/cadence/v8_0/spectre/v8_0_1/lpmos/models/photo/dphod0.scs
Reading file:  /pkg/xfab/XKIT/xh018/cadence/v8_0/spectre/v8_0_1/lpmos/models/photo/dphod0_an1.scs
Reading file:  /pkg/xfab/XKIT/xh018/cadence/v8_0/spectre/v8_0_1/lpmos/models/photo/dphod0_an2.scs
Reading file:  /pkg/xfab/XKIT/xh018/cadence/v8_0/spectre/v8_0_1/lpmos/models/photo/dphodfp.scs
Reading file:  /pkg/xfab/XKIT/xh018/cadence/v8_0/spectre/v8_0_1/lpmos/models/photo/dphodfp_an1.scs
Reading file:  /pkg/xfab/XKIT/xh018/cadence/v8_0/spectre/v8_0_1/lpmos/models/photo/dphodfp_an2.scs
Reading file:  /pkg/xfab/XKIT/xh018/cadence/v8_0/spectre/v8_0_1/lpmos/models/photo/dspada.scs
Reading file:  /pkg/xfab/XKIT/xh018/cadence/v8_0/spectre/v8_0_1/lpmos/models/photo/ispad.va
Reading file:  /pkg/xfab/XKIT/xh018/cadence/v8_0/spectre/v8_0_1/lpmos/models/photo/dspada_cat.scs
Reading file:  /pkg/xfab/XKIT/xh018/cadence/v8_0/spectre/v8_0_1/lpmos/models/photo/dspada0.scs
Reading file:  /pkg/xfab/XKIT/xh018/cadence/v8_0/spectre/v8_0_1/lpmos/models/photo/dapda.scs
Reading file:  /pkg/xfab/XKIT/xh018/cadence/v8_0/spectre/v8_0_1/lpmos/models/photo/iphoto_apd.va
Reading file:  /pkg/xfab/XKIT/xh018/cadence/v8_0/spectre/v8_0_1/lpmos/models/photo/dapda_cat.scs
Reading file:  /pkg/xfab/XKIT/xh018/cadence/v8_0/spectre/v8_0_1/lpmos/models/photo/dapda0.scs
Reading file:  /pkg/xfab/XKIT/xh018/cadence/v8_0/spectre/v8_0_1/lpmos/res.scs
Reading file:  /pkg/xfab/XKIT/xh018/cadence/v8_0/spectre/v8_0_1/lpmos/models/res/tm_res.scs
Reading file:  /pkg/xfab/XKIT/xh018/cadence/v8_0/spectre/v8_0_1/lpmos/models/res/rdn.scs
Reading file:  /pkg/xfab/XKIT/xh018/cadence/v8_0/spectre/v8_0_1/lpmos/models/res/rdn_esd.scs
Reading file:  /pkg/xfab/XKIT/xh018/cadence/v8_0/spectre/v8_0_1/lpmos/models/res/rdp.scs
Reading file:  /pkg/xfab/XKIT/xh018/cadence/v8_0/spectre/v8_0_1/lpmos/models/res/rdp_io.scs
Reading file:  /pkg/xfab/XKIT/xh018/cadence/v8_0/spectre/v8_0_1/lpmos/models/res/rdp_esd.scs
Reading file:  /pkg/xfab/XKIT/xh018/cadence/v8_0/spectre/v8_0_1/lpmos/models/res/rnw.scs
Reading file:  /pkg/xfab/XKIT/xh018/cadence/v8_0/spectre/v8_0_1/lpmos/models/res/rnw_scr.scs
Reading file:  /pkg/xfab/XKIT/xh018/cadence/v8_0/spectre/v8_0_1/lpmos/models/res/rdn3.scs
Reading file:  /pkg/xfab/XKIT/xh018/cadence/v8_0/spectre/v8_0_1/lpmos/models/res/rdp3.scs
Reading file:  /pkg/xfab/XKIT/xh018/cadence/v8_0/spectre/v8_0_1/lpmos/models/res/rnw3.scs
Reading file:  /pkg/xfab/XKIT/xh018/cadence/v8_0/spectre/v8_0_1/lpmos/models/res/rnw3_scr.scs
Reading file:  /pkg/xfab/XKIT/xh018/cadence/v8_0/spectre/v8_0_1/lpmos/models/res/rdnwmv.scs
Reading file:  /pkg/xfab/XKIT/xh018/cadence/v8_0/spectre/v8_0_1/lpmos/models/res/rnp1.scs
Reading file:  /pkg/xfab/XKIT/xh018/cadence/v8_0/spectre/v8_0_1/lpmos/models/res/rnp1_3.scs
Reading file:  /pkg/xfab/XKIT/xh018/cadence/v8_0/spectre/v8_0_1/lpmos/models/res/rpp1.scs
Reading file:  /pkg/xfab/XKIT/xh018/cadence/v8_0/spectre/v8_0_1/lpmos/models/res/rpp1_3.scs
Reading file:  /pkg/xfab/XKIT/xh018/cadence/v8_0/spectre/v8_0_1/lpmos/models/res/rpp1s.scs
Reading file:  /pkg/xfab/XKIT/xh018/cadence/v8_0/spectre/v8_0_1/lpmos/models/res/rpp1s_3.scs
Reading file:  /pkg/xfab/XKIT/xh018/cadence/v8_0/spectre/v8_0_1/lpmos/models/res/rnp1h.scs
Reading file:  /pkg/xfab/XKIT/xh018/cadence/v8_0/spectre/v8_0_1/lpmos/models/res/rnp1h_3.scs
Reading file:  /pkg/xfab/XKIT/xh018/cadence/v8_0/spectre/v8_0_1/lpmos/models/res/rpp1k1.scs
Reading file:  /pkg/xfab/XKIT/xh018/cadence/v8_0/spectre/v8_0_1/lpmos/models/res/rpp1k1_3.scs
Reading file:  /pkg/xfab/XKIT/xh018/cadence/v8_0/spectre/v8_0_1/lpmos/models/res/rctdn.scs
Reading file:  /pkg/xfab/XKIT/xh018/cadence/v8_0/spectre/v8_0_1/lpmos/models/res/rctdp.scs
Reading file:  /pkg/xfab/XKIT/xh018/cadence/v8_0/spectre/v8_0_1/lpmos/models/res/rctp1.scs
Reading file:  /pkg/xfab/XKIT/xh018/cadence/v8_0/spectre/v8_0_1/lpmos/models/res/rsildn.scs
Reading file:  /pkg/xfab/XKIT/xh018/cadence/v8_0/spectre/v8_0_1/lpmos/models/res/rsildp.scs
Reading file:  /pkg/xfab/XKIT/xh018/cadence/v8_0/spectre/v8_0_1/lpmos/models/res/rsilnp1.scs
Reading file:  /pkg/xfab/XKIT/xh018/cadence/v8_0/spectre/v8_0_1/lpmos/models/res/rsilpp1.scs
Reading file:  /pkg/xfab/XKIT/xh018/cadence/v8_0/spectre/v8_0_1/lpmos/models/res/rsbdn.scs
Reading file:  /pkg/xfab/XKIT/xh018/cadence/v8_0/spectre/v8_0_1/lpmos/models/res/rsbdp.scs
Reading file:  /pkg/xfab/XKIT/xh018/cadence/v8_0/spectre/v8_0_1/lpmos/models/res/rsbdn3.scs
Reading file:  /pkg/xfab/XKIT/xh018/cadence/v8_0/spectre/v8_0_1/lpmos/models/res/rsbdp3.scs
Reading file:  /pkg/xfab/XKIT/xh018/cadence/v8_0/spectre/v8_0_1/lpmos/models/res/rsbnp1.scs
Reading file:  /pkg/xfab/XKIT/xh018/cadence/v8_0/spectre/v8_0_1/lpmos/models/res/rsbpp1.scs
Reading file:  /pkg/xfab/XKIT/xh018/cadence/v8_0/spectre/v8_0_1/lpmos/models/res/rsbpp1k1.scs
Reading file:  /pkg/xfab/XKIT/xh018/cadence/v8_0/spectre/v8_0_1/lpmos/models/res/rm1.scs
Reading file:  /pkg/xfab/XKIT/xh018/cadence/v8_0/spectre/v8_0_1/lpmos/models/res/rm2.scs
Reading file:  /pkg/xfab/XKIT/xh018/cadence/v8_0/spectre/v8_0_1/lpmos/models/res/rm3.scs
Reading file:  /pkg/xfab/XKIT/xh018/cadence/v8_0/spectre/v8_0_1/lpmos/models/res/rm4.scs
Reading file:  /pkg/xfab/XKIT/xh018/cadence/v8_0/spectre/v8_0_1/lpmos/models/res/rm5.scs
Reading file:  /pkg/xfab/XKIT/xh018/cadence/v8_0/spectre/v8_0_1/lpmos/models/res/rmtp.scs
Reading file:  /pkg/xfab/XKIT/xh018/cadence/v8_0/spectre/v8_0_1/lpmos/models/res/rmtpl.scs
Reading file:  /pkg/xfab/XKIT/xh018/cadence/v8_0/spectre/v8_0_1/lpmos/models/res/pfuse.scs
Reading file:  /pkg/xfab/XKIT/xh018/cadence/v8_0/spectre/v8_0_1/lpmos/models/res/s_res.scs
Time for NDB Parsing: CPU = 515.085 ms, elapsed = 1.91247 s.
Time accumulated: CPU = 555.623 ms, elapsed = 1.91248 s.
Peak resident memory used = 69.6 Mbytes.

Time for Elaboration: CPU = 27.41 ms, elapsed = 27.411 ms.
Time accumulated: CPU = 583.198 ms, elapsed = 1.94005 s.
Peak resident memory used = 77.9 Mbytes.


Warning from spectre during hierarchy flattening.
    WARNING (SPECTRE-17101): The value 'psf' specified using the 'checklimitdest' option will no longer be supported in future releases.


Time for EDB Visiting: CPU = 910 us, elapsed = 910.044 us.
Time accumulated: CPU = 584.291 ms, elapsed = 1.94114 s.
Peak resident memory used = 78.6 Mbytes.


Notice from spectre during initial setup.
    Multithreading is disabled due to the size of the design being too small.


Global user options:
         psfversion = 1.1.0
            vabstol = 1e-06
            iabstol = 1e-12
               temp = 27
           homotopy = 7
              limit = delta
         compatible = spice2
               gmin = 1e-12
             rforce = 1
           maxnotes = 5
           maxwarns = 5
             digits = 5
               cols = 80
             pivrel = 0.001
           sensfile = ../psf/sens.output
     checklimitdest = psf
               save = allpub
             reltol = 0.0001
               tnom = 27
             scalem = 1
              scale = 1

Scoped user options:

Circuit inventory:
              nodes 2
             iprobe 1     
            bsim3v3 1     
            vsource 2     

Analysis and control statement inventory:
                 dc 1     
               info 6     

Output statements:
             .probe 0     
           .measure 0     
               save 1     


Notice from spectre during initial setup.
    Fast APS Enabled.

Time for parsing: CPU = 3.326 ms, elapsed = 8.29697 ms.
Time accumulated: CPU = 587.727 ms, elapsed = 1.94955 s.
Peak resident memory used = 80.3 Mbytes.

~~~~~~~~~~~~~~~~~~~~~~
Pre-Simulation Summary
~~~~~~~~~~~~~~~~~~~~~~
~~~~~~~~~~~~~~~~~~~~~~

**********************************
DC Analysis `dc': VGS = (0 -> 1.8)
**********************************

Opening the PSF file ../psf/dc.dc ...
Important parameter values:
    reltol = 100e-06
    abstol(V) = 1 uV
    abstol(I) = 1 pA
    temp = 27 C
    tnom = 27 C
    tempeffects = all
    gmindc = 1 pS
    rabsshort = 1 mOhm
    dc: VGS = 100e-03     (5.56 %), step = 100e-03      (5.56 %)
    dc: VGS = 200e-03     (11.1 %), step = 100e-03      (5.56 %)
    dc: VGS = 300e-03     (16.7 %), step = 100e-03      (5.56 %)
    dc: VGS = 400e-03     (22.2 %), step = 100e-03      (5.56 %)
    dc: VGS = 500e-03     (27.8 %), step = 100e-03      (5.56 %)
    dc: VGS = 600e-03     (33.3 %), step = 100e-03      (5.56 %)
    dc: VGS = 700e-03     (38.9 %), step = 100e-03      (5.56 %)
    dc: VGS = 800e-03     (44.4 %), step = 100e-03      (5.56 %)
    dc: VGS = 900e-03       (50 %), step = 100e-03      (5.56 %)
    dc: VGS = 1           (55.6 %), step = 100e-03      (5.56 %)
    dc: VGS = 1.1         (61.1 %), step = 100e-03      (5.56 %)
    dc: VGS = 1.2         (66.7 %), step = 100e-03      (5.56 %)
    dc: VGS = 1.3         (72.2 %), step = 100e-03      (5.56 %)
    dc: VGS = 1.4         (77.8 %), step = 100e-03      (5.56 %)
    dc: VGS = 1.5         (83.3 %), step = 100e-03      (5.56 %)
    dc: VGS = 1.6         (88.9 %), step = 100e-03      (5.56 %)
    dc: VGS = 1.7         (94.4 %), step = 100e-03      (5.56 %)
    dc: VGS = 1.8          (100 %), step = 100e-03      (5.56 %)

Maximum value achieved for any signal of each quantity: 
V: V(net2) = 1.8 V
I: I(M0:1) = 0 A
DC simulation time: CPU = 11.903 ms, elapsed = 14.153 ms.

Notice from spectre at VGS = 1.8 during DC analysis `dc'.
    The value of parameter 'VGS' has been reset to the original value 1.

Total time required for dc analysis `dc': CPU = 11.964 ms, elapsed = 14.2109 ms.
Time accumulated: CPU = 606.22 ms, elapsed = 1.97029 s.
Peak resident memory used = 81.8 Mbytes.

modelParameter: writing model parameter values to rawfile.

Opening the PSF file ../psf/modelParameter.info ...
element: writing instance parameter values to rawfile.

Opening the PSF file ../psf/element.info ...
outputParameter: writing output parameter values to rawfile.

Opening the PSF file ../psf/outputParameter.info ...
designParamVals: writing netlist parameters to rawfile.

Opening the PSFASCII file ../psf/designParamVals.info ...
primitives: writing primitives to rawfile.

Opening the PSFASCII file ../psf/primitives.info.primitives ...
subckts: writing subcircuits to rawfile.

Opening the PSFASCII file ../psf/subckts.info.subckts ...

Aggregate audit (4:42:31 PM, Wed Dec 4, 2019):
Time used: CPU = 644 ms, elapsed = 2.03 s, util. = 31.7%.
Time spent in licensing: elapsed = 138 ms, percentage of total = 6.82%.
Peak memory used = 83 Mbytes.
Simulation started at: 4:42:29 PM, Wed Dec 4, 2019, ended at: 4:42:31 PM, Wed Dec 4, 2019, with elapsed time (wall clock): 2.03 s.
spectre completes with 0 errors, 1 warning, and 4 notices.


********* LOG ENDS **************
**                             **
**                             **
********* LOG STARTS ************



Spectre (R) Circuit Simulator
Version 18.1.0.516.isr12 64bit -- 25 Oct 2019
Copyright (C) 1989-2019 Cadence Design Systems, Inc. All rights reserved worldwide. Cadence and Spectre are registered trademarks of Cadence Design Systems, Inc. All others are the property of their respective holders.

Includes RSA BSAFE(R) Cryptographic or Security Protocol Software from RSA Security, Inc.

User: saul   Host: s2424   HostID: ED824314   PID: 14436
Memory  available: 583.6349 MB  physical: 67.2864 GB
CPU Type: Intel(R) Xeon(R) CPU E5-2630 v3 @ 2.40GHz
        Socket: Processors [Frequency] (Hyperthreaded Processor)
        0:       0 [2601.9] ( 16 ),  1 [2600.1] ( 17 ),  2 [2629.7] ( 18 )
                 3 [2616.1] ( 19 ),  4 [2400.0] ( 20 ),  5 [2400.4] ( 21 )
                 6 [2634.8] ( 22 ),  7 [2630.3] ( 23 )
        1:       8 [2610.2] ( 24 ),  9 [2400.0] ( 25 ), 10 [2603.3] ( 26 )
                11 [2601.4] ( 27 ), 12 [2400.0] ( 28 ), 13 [2400.0] ( 29 )
                14 [2626.6] ( 30 ), 15 [2603.0] ( 31 )
        
System load averages (1min, 5min, 15min) : 1.1 %, 0.5 %, 0.5 %
Hyperthreading is enabled
HPC is enabled


Simulating `input.scs' on s2424 at 4:42:29 PM, Wed Dec 4, 2019 (process id: 14436).
Current working directory: /home/saul/projects/test_xfab1/Sim/CHARACTERIZATION/DC_BIAS_NMOS/adexl/results/data/Ocean.0/2/CHARACTERIZATION:DC_BIAS_NMOS:1/netlist
Command line:
    /pkg/cadence/installs/SPECTRE181/tools/bin/spectre -64 input.scs  \
        +escchars +log ../psf/spectre.out -format psfxl -raw ../psf  \
        ++aps +lqtimeout 900 -maxw 5 -maxn 5 -env ade -ahdllibdir  \
        /home/saul/projects/test_xfab1/Sim/CHARACTERIZATION/DC_BIAS_NMOS/adexl/results/data/Ocean.0/sharedData/Job29/ahdl/input.ahdlSimDB  \
        +logstatus

Loading /pkg/cadence/installs/SPECTRE181/tools.lnx86/cmi/lib/64bit/5.0/libinfineon_sh.so ...
Loading /pkg/cadence/installs/SPECTRE181/tools.lnx86/cmi/lib/64bit/5.0/libphilips_o_sh.so ...
Loading /pkg/cadence/installs/SPECTRE181/tools.lnx86/cmi/lib/64bit/5.0/libphilips_sh.so ...
Loading /pkg/cadence/installs/SPECTRE181/tools.lnx86/cmi/lib/64bit/5.0/libsparam_sh.so ...
Loading /pkg/cadence/installs/SPECTRE181/tools.lnx86/cmi/lib/64bit/5.0/libstmodels_sh.so ...
Reading file:  /home/saul/projects/test_xfab1/Sim/CHARACTERIZATION/DC_BIAS_NMOS/adexl/results/data/Ocean.0/2/CHARACTERIZATION:DC_BIAS_NMOS:1/netlist/input.scs
Reading file:  /pkg/cadence/installs/SPECTRE181/tools.lnx86/spectre/etc/configs/spectre.cfg
Reading file:  /pkg/xfab/XKIT/xh018/cadence/v8_0/spectre/v8_0_1/lpmos/config.scs
Reading file:  /pkg/xfab/XKIT/xh018/cadence/v8_0/spectre/v8_0_1/lpmos/param.scs
Reading file:  /pkg/xfab/XKIT/xh018/cadence/v8_0/spectre/v8_0_1/lpmos/bip.scs
Reading file:  /pkg/xfab/XKIT/xh018/cadence/v8_0/spectre/v8_0_1/lpmos/models/bip/tm_bip.scs
Reading file:  /pkg/xfab/XKIT/xh018/cadence/v8_0/spectre/v8_0_1/lpmos/models/bip/qpva.scs
Reading file:  /pkg/xfab/XKIT/xh018/cadence/v8_0/spectre/v8_0_1/lpmos/models/bip/qpvb.scs
Reading file:  /pkg/xfab/XKIT/xh018/cadence/v8_0/spectre/v8_0_1/lpmos/models/bip/qpvc.scs
Reading file:  /pkg/xfab/XKIT/xh018/cadence/v8_0/spectre/v8_0_1/lpmos/models/bip/qpva3.scs
Reading file:  /pkg/xfab/XKIT/xh018/cadence/v8_0/spectre/v8_0_1/lpmos/models/bip/qpvb3.scs
Reading file:  /pkg/xfab/XKIT/xh018/cadence/v8_0/spectre/v8_0_1/lpmos/models/bip/qpvc3.scs
Reading file:  /pkg/xfab/XKIT/xh018/cadence/v8_0/spectre/v8_0_1/lpmos/models/bip/qnva.scs
Reading file:  /pkg/xfab/XKIT/xh018/cadence/v8_0/spectre/v8_0_1/lpmos/models/bip/qnvb.scs
Reading file:  /pkg/xfab/XKIT/xh018/cadence/v8_0/spectre/v8_0_1/lpmos/models/bip/qnvb_npn.scs
Reading file:  /pkg/xfab/XKIT/xh018/cadence/v8_0/spectre/v8_0_1/lpmos/models/bip/qnvb_pnp.scs
Reading file:  /pkg/xfab/XKIT/xh018/cadence/v8_0/spectre/v8_0_1/lpmos/models/bip/qnvc.scs
Reading file:  /pkg/xfab/XKIT/xh018/cadence/v8_0/spectre/v8_0_1/lpmos/models/bip/qnvc_npn.scs
Reading file:  /pkg/xfab/XKIT/xh018/cadence/v8_0/spectre/v8_0_1/lpmos/models/bip/qnvc_pnp.scs
Reading file:  /pkg/xfab/XKIT/xh018/cadence/v8_0/spectre/v8_0_1/lpmos/models/bip/qpvhscr.scs
Reading file:  /pkg/xfab/XKIT/xh018/cadence/v8_0/spectre/v8_0_1/lpmos/models/bip/qpvascr.scs
Reading file:  /pkg/xfab/XKIT/xh018/cadence/v8_0/spectre/v8_0_1/lpmos/models/bip/qpvhbscr.scs
Reading file:  /pkg/xfab/XKIT/xh018/cadence/v8_0/spectre/v8_0_1/lpmos/models/bip/qpv_pa.scs
Reading file:  /pkg/xfab/XKIT/xh018/cadence/v8_0/spectre/v8_0_1/lpmos/models/bip/qpv_pb.scs
Reading file:  /pkg/xfab/XKIT/xh018/cadence/v8_0/spectre/v8_0_1/lpmos/models/bip/qpv_pc.scs
Reading file:  /pkg/xfab/XKIT/xh018/cadence/v8_0/spectre/v8_0_1/lpmos/models/bip/qpv_pd.scs
Reading file:  /pkg/xfab/XKIT/xh018/cadence/v8_0/spectre/v8_0_1/lpmos/models/bip/qpv_pe.scs
Reading file:  /pkg/xfab/XKIT/xh018/cadence/v8_0/spectre/v8_0_1/lpmos/models/bip/qpv_pf.scs
Reading file:  /pkg/xfab/XKIT/xh018/cadence/v8_0/spectre/v8_0_1/lpmos/models/bip/qpl_pa.scs
Reading file:  /pkg/xfab/XKIT/xh018/cadence/v8_0/spectre/v8_0_1/lpmos/models/bip/qpl_pb.scs
Reading file:  /pkg/xfab/XKIT/xh018/cadence/v8_0/spectre/v8_0_1/lpmos/models/bip/qpl_pc.scs
Reading file:  /pkg/xfab/XKIT/xh018/cadence/v8_0/spectre/v8_0_1/lpmos/models/bip/qpl_pd.scs
Reading file:  /pkg/xfab/XKIT/xh018/cadence/v8_0/spectre/v8_0_1/lpmos/models/bip/qpl_pe.scs
Reading file:  /pkg/xfab/XKIT/xh018/cadence/v8_0/spectre/v8_0_1/lpmos/models/bip/qpl_pf.scs
Reading file:  /pkg/xfab/XKIT/xh018/cadence/v8_0/spectre/v8_0_1/lpmos/models/bip/qnl_pa.scs
Reading file:  /pkg/xfab/XKIT/xh018/cadence/v8_0/spectre/v8_0_1/lpmos/models/bip/qnl_pb.scs
Reading file:  /pkg/xfab/XKIT/xh018/cadence/v8_0/spectre/v8_0_1/lpmos/models/bip/qnl_pc.scs
Reading file:  /pkg/xfab/XKIT/xh018/cadence/v8_0/spectre/v8_0_1/lpmos/models/bip/qnl_pd.scs
Reading file:  /pkg/xfab/XKIT/xh018/cadence/v8_0/spectre/v8_0_1/lpmos/models/bip/qnl_pe.scs
Reading file:  /pkg/xfab/XKIT/xh018/cadence/v8_0/spectre/v8_0_1/lpmos/models/bip/qnl_pf.scs
Reading file:  /pkg/xfab/XKIT/xh018/cadence/v8_0/spectre/v8_0_1/lpmos/cap.scs
Reading file:  /pkg/xfab/XKIT/xh018/cadence/v8_0/spectre/v8_0_1/lpmos/models/cap/tm_cap.scs
Reading file:  /pkg/xfab/XKIT/xh018/cadence/v8_0/spectre/v8_0_1/lpmos/models/cap/csandwt3.scs
Reading file:  /pkg/xfab/XKIT/xh018/cadence/v8_0/spectre/v8_0_1/lpmos/models/cap/csandwt4.scs
Reading file:  /pkg/xfab/XKIT/xh018/cadence/v8_0/spectre/v8_0_1/lpmos/models/cap/csandwt5.scs
Reading file:  /pkg/xfab/XKIT/xh018/cadence/v8_0/spectre/v8_0_1/lpmos/models/cap/csf2p.scs
Reading file:  /pkg/xfab/XKIT/xh018/cadence/v8_0/spectre/v8_0_1/lpmos/models/cap/csf3p.scs
Reading file:  /pkg/xfab/XKIT/xh018/cadence/v8_0/spectre/v8_0_1/lpmos/models/cap/csf3.scs
Reading file:  /pkg/xfab/XKIT/xh018/cadence/v8_0/spectre/v8_0_1/lpmos/models/cap/csf4.scs
Reading file:  /pkg/xfab/XKIT/xh018/cadence/v8_0/spectre/v8_0_1/lpmos/models/cap/csf5.scs
Reading file:  /pkg/xfab/XKIT/xh018/cadence/v8_0/spectre/v8_0_1/lpmos/models/cap/csft4.scs
Reading file:  /pkg/xfab/XKIT/xh018/cadence/v8_0/spectre/v8_0_1/lpmos/models/cap/csft5.scs
Reading file:  /pkg/xfab/XKIT/xh018/cadence/v8_0/spectre/v8_0_1/lpmos/models/cap/csft6.scs
Reading file:  /pkg/xfab/XKIT/xh018/cadence/v8_0/spectre/v8_0_1/lpmos/models/cap/csf3a.scs
Reading file:  /pkg/xfab/XKIT/xh018/cadence/v8_0/spectre/v8_0_1/lpmos/models/cap/csf4a.scs
Reading file:  /pkg/xfab/XKIT/xh018/cadence/v8_0/spectre/v8_0_1/lpmos/models/cap/csf5a.scs
Reading file:  /pkg/xfab/XKIT/xh018/cadence/v8_0/spectre/v8_0_1/lpmos/models/cap/csft4a.scs
Reading file:  /pkg/xfab/XKIT/xh018/cadence/v8_0/spectre/v8_0_1/lpmos/models/cap/csft5a.scs
Reading file:  /pkg/xfab/XKIT/xh018/cadence/v8_0/spectre/v8_0_1/lpmos/models/cap/csft6a.scs
Reading file:  /pkg/xfab/XKIT/xh018/cadence/v8_0/spectre/v8_0_1/lpmos/models/cap/cmm3.scs
Reading file:  /pkg/xfab/XKIT/xh018/cadence/v8_0/spectre/v8_0_1/lpmos/models/cap/cmm4t.scs
Reading file:  /pkg/xfab/XKIT/xh018/cadence/v8_0/spectre/v8_0_1/lpmos/models/cap/cmm4.scs
Reading file:  /pkg/xfab/XKIT/xh018/cadence/v8_0/spectre/v8_0_1/lpmos/models/cap/cmm5t.scs
Reading file:  /pkg/xfab/XKIT/xh018/cadence/v8_0/spectre/v8_0_1/lpmos/models/cap/cmm6t.scs
Reading file:  /pkg/xfab/XKIT/xh018/cadence/v8_0/spectre/v8_0_1/lpmos/models/cap/cdmm4.scs
Reading file:  /pkg/xfab/XKIT/xh018/cadence/v8_0/spectre/v8_0_1/lpmos/models/cap/cdmm4t.scs
Reading file:  /pkg/xfab/XKIT/xh018/cadence/v8_0/spectre/v8_0_1/lpmos/models/cap/ctmm5.scs
Reading file:  /pkg/xfab/XKIT/xh018/cadence/v8_0/spectre/v8_0_1/lpmos/models/cap/ctmm5t.scs
Reading file:  /pkg/xfab/XKIT/xh018/cadence/v8_0/spectre/v8_0_1/lpmos/models/cap/cmmh3.scs
Reading file:  /pkg/xfab/XKIT/xh018/cadence/v8_0/spectre/v8_0_1/lpmos/models/cap/cmmh4t.scs
Reading file:  /pkg/xfab/XKIT/xh018/cadence/v8_0/spectre/v8_0_1/lpmos/models/cap/cmmh4.scs
Reading file:  /pkg/xfab/XKIT/xh018/cadence/v8_0/spectre/v8_0_1/lpmos/models/cap/cmmh5t.scs
Reading file:  /pkg/xfab/XKIT/xh018/cadence/v8_0/spectre/v8_0_1/lpmos/models/cap/cmmh6t.scs
Reading file:  /pkg/xfab/XKIT/xh018/cadence/v8_0/spectre/v8_0_1/lpmos/models/cap/cdmmh4.scs
Reading file:  /pkg/xfab/XKIT/xh018/cadence/v8_0/spectre/v8_0_1/lpmos/models/cap/cdmmh4t.scs
Reading file:  /pkg/xfab/XKIT/xh018/cadence/v8_0/spectre/v8_0_1/lpmos/models/cap/ctmmh5.scs
Reading file:  /pkg/xfab/XKIT/xh018/cadence/v8_0/spectre/v8_0_1/lpmos/models/cap/ctmmh5t.scs
Reading file:  /pkg/xfab/XKIT/xh018/cadence/v8_0/spectre/v8_0_1/lpmos/models/cap/mosvc.scs
Reading file:  /pkg/xfab/XKIT/xh018/cadence/v8_0/spectre/v8_0_1/lpmos/models/cap/mosvc_pmos.scs
Reading file:  /pkg/xfab/XKIT/xh018/cadence/v8_0/spectre/v8_0_1/lpmos/models/cap/mosvci.scs
Reading file:  /pkg/xfab/XKIT/xh018/cadence/v8_0/spectre/v8_0_1/lpmos/models/cap/mosvci_nmos.scs
Reading file:  /pkg/xfab/XKIT/xh018/cadence/v8_0/spectre/v8_0_1/lpmos/models/cap/mosvci_m.scs
Reading file:  /pkg/xfab/XKIT/xh018/cadence/v8_0/spectre/v8_0_1/lpmos/models/cap/mosvc3.scs
Reading file:  /pkg/xfab/XKIT/xh018/cadence/v8_0/spectre/v8_0_1/lpmos/models/cap/mosvc3_pmos.scs
Reading file:  /pkg/xfab/XKIT/xh018/cadence/v8_0/spectre/v8_0_1/lpmos/models/cap/mosvc3i.scs
Reading file:  /pkg/xfab/XKIT/xh018/cadence/v8_0/spectre/v8_0_1/lpmos/models/cap/mosvc3i_nmos.scs
Reading file:  /pkg/xfab/XKIT/xh018/cadence/v8_0/spectre/v8_0_1/lpmos/models/cap/mosvc3i_m.scs
Reading file:  /pkg/xfab/XKIT/xh018/cadence/v8_0/spectre/v8_0_1/lpmos/models/cap/cpod.scs
Reading file:  /pkg/xfab/XKIT/xh018/cadence/v8_0/spectre/v8_0_1/lpmos/models/cap/cpod_i.scs
Reading file:  /pkg/xfab/XKIT/xh018/cadence/v8_0/spectre/v8_0_1/lpmos/models/cap/cpodhv.scs
Reading file:  /pkg/xfab/XKIT/xh018/cadence/v8_0/spectre/v8_0_1/lpmos/models/cap/cpodhv_i.scs
Reading file:  /pkg/xfab/XKIT/xh018/cadence/v8_0/spectre/v8_0_1/lpmos/models/cap/cp1sub.scs
Reading file:  /pkg/xfab/XKIT/xh018/cadence/v8_0/spectre/v8_0_1/lpmos/models/cap/cp1suba.scs
Reading file:  /pkg/xfab/XKIT/xh018/cadence/v8_0/spectre/v8_0_1/lpmos/models/cap/cp1subp.scs
Reading file:  /pkg/xfab/XKIT/xh018/cadence/v8_0/spectre/v8_0_1/lpmos/models/cap/tag_25v.scs
Reading file:  /pkg/xfab/XKIT/xh018/cadence/v8_0/spectre/v8_0_1/lpmos/models/cap/tag_60v.scs
Reading file:  /pkg/xfab/XKIT/xh018/cadence/v8_0/spectre/v8_0_1/lpmos/dio.scs
Reading file:  /pkg/xfab/XKIT/xh018/cadence/v8_0/spectre/v8_0_1/lpmos/models/dio/tm_dio.scs
Reading file:  /pkg/xfab/XKIT/xh018/cadence/v8_0/spectre/v8_0_1/lpmos/models/dio/dn.scs
Reading file:  /pkg/xfab/XKIT/xh018/cadence/v8_0/spectre/v8_0_1/lpmos/models/dio/dp.scs
Reading file:  /pkg/xfab/XKIT/xh018/cadence/v8_0/spectre/v8_0_1/lpmos/models/dio/dnw.scs
Reading file:  /pkg/xfab/XKIT/xh018/cadence/v8_0/spectre/v8_0_1/lpmos/models/dio/dn3.scs
Reading file:  /pkg/xfab/XKIT/xh018/cadence/v8_0/spectre/v8_0_1/lpmos/models/dio/dnn3.scs
Reading file:  /pkg/xfab/XKIT/xh018/cadence/v8_0/spectre/v8_0_1/lpmos/models/dio/dp3.scs
Reading file:  /pkg/xfab/XKIT/xh018/cadence/v8_0/spectre/v8_0_1/lpmos/models/dio/dnw3.scs
Reading file:  /pkg/xfab/XKIT/xh018/cadence/v8_0/spectre/v8_0_1/lpmos/models/dio/ddnwmv.scs
Reading file:  /pkg/xfab/XKIT/xh018/cadence/v8_0/spectre/v8_0_1/lpmos/models/dio/dpdnwmv.scs
Reading file:  /pkg/xfab/XKIT/xh018/cadence/v8_0/spectre/v8_0_1/lpmos/models/dio/dipdnwmv.scs
Reading file:  /pkg/xfab/XKIT/xh018/cadence/v8_0/spectre/v8_0_1/lpmos/models/dio/ddnw.scs
Reading file:  /pkg/xfab/XKIT/xh018/cadence/v8_0/spectre/v8_0_1/lpmos/models/dio/dpdnw.scs
Reading file:  /pkg/xfab/XKIT/xh018/cadence/v8_0/spectre/v8_0_1/lpmos/models/dio/dipdnw.scs
Reading file:  /pkg/xfab/XKIT/xh018/cadence/v8_0/spectre/v8_0_1/lpmos/models/dio/dnhpw.scs
Reading file:  /pkg/xfab/XKIT/xh018/cadence/v8_0/spectre/v8_0_1/lpmos/models/dio/dnhpwa.scs
Reading file:  /pkg/xfab/XKIT/xh018/cadence/v8_0/spectre/v8_0_1/lpmos/models/dio/dphnw.scs
Reading file:  /pkg/xfab/XKIT/xh018/cadence/v8_0/spectre/v8_0_1/lpmos/models/dio/dphnwa.scs
Reading file:  /pkg/xfab/XKIT/xh018/cadence/v8_0/spectre/v8_0_1/lpmos/models/dio/dhpw.scs
Reading file:  /pkg/xfab/XKIT/xh018/cadence/v8_0/spectre/v8_0_1/lpmos/models/dio/dhnw.scs
Reading file:  /pkg/xfab/XKIT/xh018/cadence/v8_0/spectre/v8_0_1/lpmos/models/dio/dndf.scs
Reading file:  /pkg/xfab/XKIT/xh018/cadence/v8_0/spectre/v8_0_1/lpmos/models/dio/dpdwhn.scs
Reading file:  /pkg/xfab/XKIT/xh018/cadence/v8_0/spectre/v8_0_1/lpmos/models/dio/dwhn.scs
Reading file:  /pkg/xfab/XKIT/xh018/cadence/v8_0/spectre/v8_0_1/lpmos/models/dio/dpwhn.scs
Reading file:  /pkg/xfab/XKIT/xh018/cadence/v8_0/spectre/v8_0_1/lpmos/models/dio/dpndf.scs
Reading file:  /pkg/xfab/XKIT/xh018/cadence/v8_0/spectre/v8_0_1/lpmos/models/dio/dpdddnw.scs
Reading file:  /pkg/xfab/XKIT/xh018/cadence/v8_0/spectre/v8_0_1/lpmos/models/dio/ddpldnw.scs
Reading file:  /pkg/xfab/XKIT/xh018/cadence/v8_0/spectre/v8_0_1/lpmos/models/dio/dn3dpl.scs
Reading file:  /pkg/xfab/XKIT/xh018/cadence/v8_0/spectre/v8_0_1/lpmos/models/dio/dbn.scs
Reading file:  /pkg/xfab/XKIT/xh018/cadence/v8_0/spectre/v8_0_1/lpmos/models/dio/dpol.scs
Reading file:  /pkg/xfab/XKIT/xh018/cadence/v8_0/spectre/v8_0_1/lpmos/models/dio/dnpdd_scr.scs
Reading file:  /pkg/xfab/XKIT/xh018/cadence/v8_0/spectre/v8_0_1/lpmos/models/dio/dpdd_scr.scs
Reading file:  /pkg/xfab/XKIT/xh018/cadence/v8_0/spectre/v8_0_1/lpmos/models/dio/dsb.scs
Reading file:  /pkg/xfab/XKIT/xh018/cadence/v8_0/spectre/v8_0_1/lpmos/models/dio/dsba.scs
Reading file:  /pkg/xfab/XKIT/xh018/cadence/v8_0/spectre/v8_0_1/lpmos/models/dio/dsba_qp1.scs
Reading file:  /pkg/xfab/XKIT/xh018/cadence/v8_0/spectre/v8_0_1/lpmos/models/dio/dnp20.scs
Reading file:  /pkg/xfab/XKIT/xh018/cadence/v8_0/spectre/v8_0_1/lpmos/models/dio/dpp20.scs
Reading file:  /pkg/xfab/XKIT/xh018/cadence/v8_0/spectre/v8_0_1/lpmos/models/dio/dn3sci.scs
Reading file:  /pkg/xfab/XKIT/xh018/cadence/v8_0/spectre/v8_0_1/lpmos/models/dio/dscidnwmv.scs
Reading file:  /pkg/xfab/XKIT/xh018/cadence/v8_0/spectre/v8_0_1/lpmos/mos.scs
Reading file:  /pkg/xfab/XKIT/xh018/cadence/v8_0/spectre/v8_0_1/lpmos/models/mos/tm_mos.scs
Reading file:  /pkg/xfab/XKIT/xh018/cadence/v8_0/spectre/v8_0_1/lpmos/models/mos/ne.scs
Reading file:  /pkg/xfab/XKIT/xh018/cadence/v8_0/spectre/v8_0_1/lpmos/models/mos/nei.scs
Reading file:  /pkg/xfab/XKIT/xh018/cadence/v8_0/spectre/v8_0_1/lpmos/models/mos/nei_6.scs
Reading file:  /pkg/xfab/XKIT/xh018/cadence/v8_0/spectre/v8_0_1/lpmos/models/mos/nei_m_6.scs
Reading file:  /pkg/xfab/XKIT/xh018/cadence/v8_0/spectre/v8_0_1/lpmos/models/mos/pe.scs
Reading file:  /pkg/xfab/XKIT/xh018/cadence/v8_0/spectre/v8_0_1/lpmos/models/mos/pe_5.scs
Reading file:  /pkg/xfab/XKIT/xh018/cadence/v8_0/spectre/v8_0_1/lpmos/models/mos/pei.scs
Reading file:  /pkg/xfab/XKIT/xh018/cadence/v8_0/spectre/v8_0_1/lpmos/models/mos/pei_5.scs
Reading file:  /pkg/xfab/XKIT/xh018/cadence/v8_0/spectre/v8_0_1/lpmos/models/mos/pei_m_5.scs
Reading file:  /pkg/xfab/XKIT/xh018/cadence/v8_0/spectre/v8_0_1/lpmos/models/mos/nel.scs
Reading file:  /pkg/xfab/XKIT/xh018/cadence/v8_0/spectre/v8_0_1/lpmos/models/mos/neli.scs
Reading file:  /pkg/xfab/XKIT/xh018/cadence/v8_0/spectre/v8_0_1/lpmos/models/mos/neli_6.scs
Reading file:  /pkg/xfab/XKIT/xh018/cadence/v8_0/spectre/v8_0_1/lpmos/models/mos/neli_m_6.scs
Reading file:  /pkg/xfab/XKIT/xh018/cadence/v8_0/spectre/v8_0_1/lpmos/models/mos/pel.scs
Reading file:  /pkg/xfab/XKIT/xh018/cadence/v8_0/spectre/v8_0_1/lpmos/models/mos/pel_5.scs
Reading file:  /pkg/xfab/XKIT/xh018/cadence/v8_0/spectre/v8_0_1/lpmos/models/mos/peli.scs
Reading file:  /pkg/xfab/XKIT/xh018/cadence/v8_0/spectre/v8_0_1/lpmos/models/mos/peli_5.scs
Reading file:  /pkg/xfab/XKIT/xh018/cadence/v8_0/spectre/v8_0_1/lpmos/models/mos/peli_m_5.scs
Reading file:  /pkg/xfab/XKIT/xh018/cadence/v8_0/spectre/v8_0_1/lpmos/models/mos/nn3.scs
Reading file:  /pkg/xfab/XKIT/xh018/cadence/v8_0/spectre/v8_0_1/lpmos/models/mos/ne3.scs
Reading file:  /pkg/xfab/XKIT/xh018/cadence/v8_0/spectre/v8_0_1/lpmos/models/mos/ne3i.scs
Reading file:  /pkg/xfab/XKIT/xh018/cadence/v8_0/spectre/v8_0_1/lpmos/models/mos/ne3i_6.scs
Reading file:  /pkg/xfab/XKIT/xh018/cadence/v8_0/spectre/v8_0_1/lpmos/models/mos/ne3i_m_6.scs
Reading file:  /pkg/xfab/XKIT/xh018/cadence/v8_0/spectre/v8_0_1/lpmos/models/mos/pe3.scs
Reading file:  /pkg/xfab/XKIT/xh018/cadence/v8_0/spectre/v8_0_1/lpmos/models/mos/pe3_5.scs
Reading file:  /pkg/xfab/XKIT/xh018/cadence/v8_0/spectre/v8_0_1/lpmos/models/mos/pe3i.scs
Reading file:  /pkg/xfab/XKIT/xh018/cadence/v8_0/spectre/v8_0_1/lpmos/models/mos/pe3i_5.scs
Reading file:  /pkg/xfab/XKIT/xh018/cadence/v8_0/spectre/v8_0_1/lpmos/models/mos/pe3i_m_5.scs
Reading file:  /pkg/xfab/XKIT/xh018/cadence/v8_0/spectre/v8_0_1/lpmos/models/mos/pe3ln.scs
Reading file:  /pkg/xfab/XKIT/xh018/cadence/v8_0/spectre/v8_0_1/lpmos/models/mos/pe3ln_5.scs
Reading file:  /pkg/xfab/XKIT/xh018/cadence/v8_0/spectre/v8_0_1/lpmos/models/mos/pe3lni.scs
Reading file:  /pkg/xfab/XKIT/xh018/cadence/v8_0/spectre/v8_0_1/lpmos/models/mos/pe3lni_5.scs
Reading file:  /pkg/xfab/XKIT/xh018/cadence/v8_0/spectre/v8_0_1/lpmos/models/mos/pe3lni_m_5.scs
Reading file:  /pkg/xfab/XKIT/xh018/cadence/v8_0/spectre/v8_0_1/lpmos/models/mos/nd3.scs
Reading file:  /pkg/xfab/XKIT/xh018/cadence/v8_0/spectre/v8_0_1/lpmos/models/mos/nd3_mos1.scs
Reading file:  /pkg/xfab/XKIT/xh018/cadence/v8_0/spectre/v8_0_1/lpmos/models/mos/nd3_mos2.scs
Reading file:  /pkg/xfab/XKIT/xh018/cadence/v8_0/spectre/v8_0_1/lpmos/models/mos/nd3i.scs
Reading file:  /pkg/xfab/XKIT/xh018/cadence/v8_0/spectre/v8_0_1/lpmos/models/mos/nd3i_mos1.scs
Reading file:  /pkg/xfab/XKIT/xh018/cadence/v8_0/spectre/v8_0_1/lpmos/models/mos/nd3i_mos2.scs
Reading file:  /pkg/xfab/XKIT/xh018/cadence/v8_0/spectre/v8_0_1/lpmos/models/mos/nd3i_6.scs
Reading file:  /pkg/xfab/XKIT/xh018/cadence/v8_0/spectre/v8_0_1/lpmos/models/mos/nd3i_m_6.scs
Reading file:  /pkg/xfab/XKIT/xh018/cadence/v8_0/spectre/v8_0_1/lpmos/models/mos/nelna.scs
Reading file:  /pkg/xfab/XKIT/xh018/cadence/v8_0/spectre/v8_0_1/lpmos/models/mos/nelnai.scs
Reading file:  /pkg/xfab/XKIT/xh018/cadence/v8_0/spectre/v8_0_1/lpmos/models/mos/nelnai_6.scs
Reading file:  /pkg/xfab/XKIT/xh018/cadence/v8_0/spectre/v8_0_1/lpmos/models/mos/nelnai_m_6.scs
Reading file:  /pkg/xfab/XKIT/xh018/cadence/v8_0/spectre/v8_0_1/lpmos/models/mos/ne3lna.scs
Reading file:  /pkg/xfab/XKIT/xh018/cadence/v8_0/spectre/v8_0_1/lpmos/models/mos/ne3lnai.scs
Reading file:  /pkg/xfab/XKIT/xh018/cadence/v8_0/spectre/v8_0_1/lpmos/models/mos/ne3lnai_6.scs
Reading file:  /pkg/xfab/XKIT/xh018/cadence/v8_0/spectre/v8_0_1/lpmos/models/mos/ne3lnai_m_6.scs
Reading file:  /pkg/xfab/XKIT/xh018/cadence/v8_0/spectre/v8_0_1/lpmos/models/mos/pe3lna.scs
Reading file:  /pkg/xfab/XKIT/xh018/cadence/v8_0/spectre/v8_0_1/lpmos/models/mos/pe3lna_5.scs
Reading file:  /pkg/xfab/XKIT/xh018/cadence/v8_0/spectre/v8_0_1/lpmos/models/mos/pe3lnai.scs
Reading file:  /pkg/xfab/XKIT/xh018/cadence/v8_0/spectre/v8_0_1/lpmos/models/mos/pe3lnai_5.scs
Reading file:  /pkg/xfab/XKIT/xh018/cadence/v8_0/spectre/v8_0_1/lpmos/models/mos/pe3lnai_m_5.scs
Reading file:  /pkg/xfab/XKIT/xh018/cadence/v8_0/spectre/v8_0_1/lpmos/models/mos/nmma.scs
Reading file:  /pkg/xfab/XKIT/xh018/cadence/v8_0/spectre/v8_0_1/lpmos/models/mos/jf_nmma.scs
Reading file:  /pkg/xfab/XKIT/xh018/cadence/v8_0/spectre/v8_0_1/lpmos/models/mos/nmma_bjt.scs
Reading file:  /pkg/xfab/XKIT/xh018/cadence/v8_0/spectre/v8_0_1/lpmos/models/mos/pmma.scs
Reading file:  /pkg/xfab/XKIT/xh018/cadence/v8_0/spectre/v8_0_1/lpmos/models/mos/jf_pmma.scs
Reading file:  /pkg/xfab/XKIT/xh018/cadence/v8_0/spectre/v8_0_1/lpmos/models/mos/pmma_bjt.scs
Reading file:  /pkg/xfab/XKIT/xh018/cadence/v8_0/spectre/v8_0_1/lpmos/models/mos/nedi.scs
Reading file:  /pkg/xfab/XKIT/xh018/cadence/v8_0/spectre/v8_0_1/lpmos/models/mos/nedi_bjt.scs
Reading file:  /pkg/xfab/XKIT/xh018/cadence/v8_0/spectre/v8_0_1/lpmos/models/mos/nedia.scs
Reading file:  /pkg/xfab/XKIT/xh018/cadence/v8_0/spectre/v8_0_1/lpmos/models/mos/nedia_bjt.scs
Reading file:  /pkg/xfab/XKIT/xh018/cadence/v8_0/spectre/v8_0_1/lpmos/models/mos/ped2.scs
Reading file:  /pkg/xfab/XKIT/xh018/cadence/v8_0/spectre/v8_0_1/lpmos/models/mos/ped2_bjt.scs
Reading file:  /pkg/xfab/XKIT/xh018/cadence/v8_0/spectre/v8_0_1/lpmos/models/mos/ped.scs
Reading file:  /pkg/xfab/XKIT/xh018/cadence/v8_0/spectre/v8_0_1/lpmos/models/mos/ped_bjt.scs
Reading file:  /pkg/xfab/XKIT/xh018/cadence/v8_0/spectre/v8_0_1/lpmos/models/mos/nhv.scs
Reading file:  /pkg/xfab/XKIT/xh018/cadence/v8_0/spectre/v8_0_1/lpmos/models/mos/nhv_mos2.scs
Reading file:  /pkg/xfab/XKIT/xh018/cadence/v8_0/spectre/v8_0_1/lpmos/models/mos/nhv_bjt.scs
Reading file:  /pkg/xfab/XKIT/xh018/cadence/v8_0/spectre/v8_0_1/lpmos/models/mos/nhhv.scs
Reading file:  /pkg/xfab/XKIT/xh018/cadence/v8_0/spectre/v8_0_1/lpmos/models/mos/nhhv_mos2.scs
Reading file:  /pkg/xfab/XKIT/xh018/cadence/v8_0/spectre/v8_0_1/lpmos/models/mos/nhhv_bjt.scs
Reading file:  /pkg/xfab/XKIT/xh018/cadence/v8_0/spectre/v8_0_1/lpmos/models/mos/nmmc.scs
Reading file:  /pkg/xfab/XKIT/xh018/cadence/v8_0/spectre/v8_0_1/lpmos/models/mos/nmmc_mos2.scs
Reading file:  /pkg/xfab/XKIT/xh018/cadence/v8_0/spectre/v8_0_1/lpmos/models/mos/nmmc_bjt.scs
Reading file:  /pkg/xfab/XKIT/xh018/cadence/v8_0/spectre/v8_0_1/lpmos/models/mos/nmmd.scs
Reading file:  /pkg/xfab/XKIT/xh018/cadence/v8_0/spectre/v8_0_1/lpmos/models/mos/nmmd_mos2.scs
Reading file:  /pkg/xfab/XKIT/xh018/cadence/v8_0/spectre/v8_0_1/lpmos/models/mos/nmmd_bjt.scs
Reading file:  /pkg/xfab/XKIT/xh018/cadence/v8_0/spectre/v8_0_1/lpmos/models/mos/nmc.scs
Reading file:  /pkg/xfab/XKIT/xh018/cadence/v8_0/spectre/v8_0_1/lpmos/models/mos/nmc_mos2.scs
Reading file:  /pkg/xfab/XKIT/xh018/cadence/v8_0/spectre/v8_0_1/lpmos/models/mos/nmc_bjt.scs
Reading file:  /pkg/xfab/XKIT/xh018/cadence/v8_0/spectre/v8_0_1/lpmos/models/mos/nma.scs
Reading file:  /pkg/xfab/XKIT/xh018/cadence/v8_0/spectre/v8_0_1/lpmos/models/mos/nma_bjt.scs
Reading file:  /pkg/xfab/XKIT/xh018/cadence/v8_0/spectre/v8_0_1/lpmos/models/mos/phv.scs
Reading file:  /pkg/xfab/XKIT/xh018/cadence/v8_0/spectre/v8_0_1/lpmos/models/mos/phv_mos2.scs
Reading file:  /pkg/xfab/XKIT/xh018/cadence/v8_0/spectre/v8_0_1/lpmos/models/mos/phv_bjt.scs
Reading file:  /pkg/xfab/XKIT/xh018/cadence/v8_0/spectre/v8_0_1/lpmos/models/mos/phhv.scs
Reading file:  /pkg/xfab/XKIT/xh018/cadence/v8_0/spectre/v8_0_1/lpmos/models/mos/phhv_mos2.scs
Reading file:  /pkg/xfab/XKIT/xh018/cadence/v8_0/spectre/v8_0_1/lpmos/models/mos/phhv_bjt.scs
Reading file:  /pkg/xfab/XKIT/xh018/cadence/v8_0/spectre/v8_0_1/lpmos/models/mos/pmc.scs
Reading file:  /pkg/xfab/XKIT/xh018/cadence/v8_0/spectre/v8_0_1/lpmos/models/mos/pmc_mos2.scs
Reading file:  /pkg/xfab/XKIT/xh018/cadence/v8_0/spectre/v8_0_1/lpmos/models/mos/pmc_bjt.scs
Reading file:  /pkg/xfab/XKIT/xh018/cadence/v8_0/spectre/v8_0_1/lpmos/models/mos/pmmc.scs
Reading file:  /pkg/xfab/XKIT/xh018/cadence/v8_0/spectre/v8_0_1/lpmos/models/mos/pmmc_mos2.scs
Reading file:  /pkg/xfab/XKIT/xh018/cadence/v8_0/spectre/v8_0_1/lpmos/models/mos/pmmc_bjt.scs
Reading file:  /pkg/xfab/XKIT/xh018/cadence/v8_0/spectre/v8_0_1/lpmos/models/mos/pma.scs
Reading file:  /pkg/xfab/XKIT/xh018/cadence/v8_0/spectre/v8_0_1/lpmos/models/mos/pma_bjt.scs
Reading file:  /pkg/xfab/XKIT/xh018/cadence/v8_0/spectre/v8_0_1/lpmos/models/mos/pmb.scs
Reading file:  /pkg/xfab/XKIT/xh018/cadence/v8_0/spectre/v8_0_1/lpmos/models/mos/nesvt.scs
Reading file:  /pkg/xfab/XKIT/xh018/cadence/v8_0/spectre/v8_0_1/lpmos/models/mos/nesvti.scs
Reading file:  /pkg/xfab/XKIT/xh018/cadence/v8_0/spectre/v8_0_1/lpmos/models/mos/nesvti_6.scs
Reading file:  /pkg/xfab/XKIT/xh018/cadence/v8_0/spectre/v8_0_1/lpmos/models/mos/nesvti_m_6.scs
Reading file:  /pkg/xfab/XKIT/xh018/cadence/v8_0/spectre/v8_0_1/lpmos/models/mos/pesvt.scs
Reading file:  /pkg/xfab/XKIT/xh018/cadence/v8_0/spectre/v8_0_1/lpmos/models/mos/pesvt_5.scs
Reading file:  /pkg/xfab/XKIT/xh018/cadence/v8_0/spectre/v8_0_1/lpmos/models/mos/pesvti.scs
Reading file:  /pkg/xfab/XKIT/xh018/cadence/v8_0/spectre/v8_0_1/lpmos/models/mos/pesvti_5.scs
Reading file:  /pkg/xfab/XKIT/xh018/cadence/v8_0/spectre/v8_0_1/lpmos/models/mos/pesvti_m_5.scs
Reading file:  /pkg/xfab/XKIT/xh018/cadence/v8_0/spectre/v8_0_1/lpmos/models/mos/nhvd.scs
Reading file:  /pkg/xfab/XKIT/xh018/cadence/v8_0/spectre/v8_0_1/lpmos/models/mos/nhvd_bjt.scs
Reading file:  /pkg/xfab/XKIT/xh018/cadence/v8_0/spectre/v8_0_1/lpmos/models/mos/nhhvd.scs
Reading file:  /pkg/xfab/XKIT/xh018/cadence/v8_0/spectre/v8_0_1/lpmos/models/mos/nhhvd_bjt.scs
Reading file:  /pkg/xfab/XKIT/xh018/cadence/v8_0/spectre/v8_0_1/lpmos/photo.scs
Reading file:  /pkg/xfab/XKIT/xh018/cadence/v8_0/spectre/v8_0_1/lpmos/models/photo/tm_pho.scs
Reading file:  /pkg/xfab/XKIT/xh018/cadence/v8_0/spectre/v8_0_1/lpmos/models/photo/dphoa.scs
Reading file:  /pkg/xfab/XKIT/xh018/cadence/v8_0/spectre/v8_0_1/lpmos/models/photo/dpho.va
Reading link:  /pkg/cadence/installs/SPECTRE181/tools.lnx86/spectre/etc/ahdl/discipline.h
Reading file:  /pkg/cadence/installs/SPECTRE181/tools.lnx86/spectre/etc/ahdl/disciplines.vams
Reading link:  /pkg/cadence/installs/SPECTRE181/tools.lnx86/spectre/etc/ahdl/constants.h
Reading file:  /pkg/cadence/installs/SPECTRE181/tools.lnx86/spectre/etc/ahdl/constants.vams
Reading file:  /pkg/xfab/XKIT/xh018/cadence/v8_0/spectre/v8_0_1/lpmos/models/photo/dphob.scs
Reading file:  /pkg/xfab/XKIT/xh018/cadence/v8_0/spectre/v8_0_1/lpmos/models/photo/dphoc.scs
Reading file:  /pkg/xfab/XKIT/xh018/cadence/v8_0/spectre/v8_0_1/lpmos/models/photo/iphoto_uv.va
Reading file:  /pkg/xfab/XKIT/xh018/cadence/v8_0/spectre/v8_0_1/lpmos/models/photo/dphoc_cat.scs
Reading file:  /pkg/xfab/XKIT/xh018/cadence/v8_0/spectre/v8_0_1/lpmos/models/photo/dphoc0.scs
Reading file:  /pkg/xfab/XKIT/xh018/cadence/v8_0/spectre/v8_0_1/lpmos/models/photo/dphoc0_cat.scs
Reading file:  /pkg/xfab/XKIT/xh018/cadence/v8_0/spectre/v8_0_1/lpmos/models/photo/dphocfp.scs
Reading file:  /pkg/xfab/XKIT/xh018/cadence/v8_0/spectre/v8_0_1/lpmos/models/photo/dphocfp_cat.scs
Reading file:  /pkg/xfab/XKIT/xh018/cadence/v8_0/spectre/v8_0_1/lpmos/models/photo/dphod.scs
Reading file:  /pkg/xfab/XKIT/xh018/cadence/v8_0/spectre/v8_0_1/lpmos/models/photo/dphod_an1.scs
Reading file:  /pkg/xfab/XKIT/xh018/cadence/v8_0/spectre/v8_0_1/lpmos/models/photo/dphod_an2.scs
Reading file:  /pkg/xfab/XKIT/xh018/cadence/v8_0/spectre/v8_0_1/lpmos/models/photo/dphod0.scs
Reading file:  /pkg/xfab/XKIT/xh018/cadence/v8_0/spectre/v8_0_1/lpmos/models/photo/dphod0_an1.scs
Reading file:  /pkg/xfab/XKIT/xh018/cadence/v8_0/spectre/v8_0_1/lpmos/models/photo/dphod0_an2.scs
Reading file:  /pkg/xfab/XKIT/xh018/cadence/v8_0/spectre/v8_0_1/lpmos/models/photo/dphodfp.scs
Reading file:  /pkg/xfab/XKIT/xh018/cadence/v8_0/spectre/v8_0_1/lpmos/models/photo/dphodfp_an1.scs
Reading file:  /pkg/xfab/XKIT/xh018/cadence/v8_0/spectre/v8_0_1/lpmos/models/photo/dphodfp_an2.scs
Reading file:  /pkg/xfab/XKIT/xh018/cadence/v8_0/spectre/v8_0_1/lpmos/models/photo/dspada.scs
Reading file:  /pkg/xfab/XKIT/xh018/cadence/v8_0/spectre/v8_0_1/lpmos/models/photo/ispad.va
Reading file:  /pkg/xfab/XKIT/xh018/cadence/v8_0/spectre/v8_0_1/lpmos/models/photo/dspada_cat.scs
Reading file:  /pkg/xfab/XKIT/xh018/cadence/v8_0/spectre/v8_0_1/lpmos/models/photo/dspada0.scs
Reading file:  /pkg/xfab/XKIT/xh018/cadence/v8_0/spectre/v8_0_1/lpmos/models/photo/dapda.scs
Reading file:  /pkg/xfab/XKIT/xh018/cadence/v8_0/spectre/v8_0_1/lpmos/models/photo/iphoto_apd.va
Reading file:  /pkg/xfab/XKIT/xh018/cadence/v8_0/spectre/v8_0_1/lpmos/models/photo/dapda_cat.scs
Reading file:  /pkg/xfab/XKIT/xh018/cadence/v8_0/spectre/v8_0_1/lpmos/models/photo/dapda0.scs
Reading file:  /pkg/xfab/XKIT/xh018/cadence/v8_0/spectre/v8_0_1/lpmos/res.scs
Reading file:  /pkg/xfab/XKIT/xh018/cadence/v8_0/spectre/v8_0_1/lpmos/models/res/tm_res.scs
Reading file:  /pkg/xfab/XKIT/xh018/cadence/v8_0/spectre/v8_0_1/lpmos/models/res/rdn.scs
Reading file:  /pkg/xfab/XKIT/xh018/cadence/v8_0/spectre/v8_0_1/lpmos/models/res/rdn_esd.scs
Reading file:  /pkg/xfab/XKIT/xh018/cadence/v8_0/spectre/v8_0_1/lpmos/models/res/rdp.scs
Reading file:  /pkg/xfab/XKIT/xh018/cadence/v8_0/spectre/v8_0_1/lpmos/models/res/rdp_io.scs
Reading file:  /pkg/xfab/XKIT/xh018/cadence/v8_0/spectre/v8_0_1/lpmos/models/res/rdp_esd.scs
Reading file:  /pkg/xfab/XKIT/xh018/cadence/v8_0/spectre/v8_0_1/lpmos/models/res/rnw.scs
Reading file:  /pkg/xfab/XKIT/xh018/cadence/v8_0/spectre/v8_0_1/lpmos/models/res/rnw_scr.scs
Reading file:  /pkg/xfab/XKIT/xh018/cadence/v8_0/spectre/v8_0_1/lpmos/models/res/rdn3.scs
Reading file:  /pkg/xfab/XKIT/xh018/cadence/v8_0/spectre/v8_0_1/lpmos/models/res/rdp3.scs
Reading file:  /pkg/xfab/XKIT/xh018/cadence/v8_0/spectre/v8_0_1/lpmos/models/res/rnw3.scs
Reading file:  /pkg/xfab/XKIT/xh018/cadence/v8_0/spectre/v8_0_1/lpmos/models/res/rnw3_scr.scs
Reading file:  /pkg/xfab/XKIT/xh018/cadence/v8_0/spectre/v8_0_1/lpmos/models/res/rdnwmv.scs
Reading file:  /pkg/xfab/XKIT/xh018/cadence/v8_0/spectre/v8_0_1/lpmos/models/res/rnp1.scs
Reading file:  /pkg/xfab/XKIT/xh018/cadence/v8_0/spectre/v8_0_1/lpmos/models/res/rnp1_3.scs
Reading file:  /pkg/xfab/XKIT/xh018/cadence/v8_0/spectre/v8_0_1/lpmos/models/res/rpp1.scs
Reading file:  /pkg/xfab/XKIT/xh018/cadence/v8_0/spectre/v8_0_1/lpmos/models/res/rpp1_3.scs
Reading file:  /pkg/xfab/XKIT/xh018/cadence/v8_0/spectre/v8_0_1/lpmos/models/res/rpp1s.scs
Reading file:  /pkg/xfab/XKIT/xh018/cadence/v8_0/spectre/v8_0_1/lpmos/models/res/rpp1s_3.scs
Reading file:  /pkg/xfab/XKIT/xh018/cadence/v8_0/spectre/v8_0_1/lpmos/models/res/rnp1h.scs
Reading file:  /pkg/xfab/XKIT/xh018/cadence/v8_0/spectre/v8_0_1/lpmos/models/res/rnp1h_3.scs
Reading file:  /pkg/xfab/XKIT/xh018/cadence/v8_0/spectre/v8_0_1/lpmos/models/res/rpp1k1.scs
Reading file:  /pkg/xfab/XKIT/xh018/cadence/v8_0/spectre/v8_0_1/lpmos/models/res/rpp1k1_3.scs
Reading file:  /pkg/xfab/XKIT/xh018/cadence/v8_0/spectre/v8_0_1/lpmos/models/res/rctdn.scs
Reading file:  /pkg/xfab/XKIT/xh018/cadence/v8_0/spectre/v8_0_1/lpmos/models/res/rctdp.scs
Reading file:  /pkg/xfab/XKIT/xh018/cadence/v8_0/spectre/v8_0_1/lpmos/models/res/rctp1.scs
Reading file:  /pkg/xfab/XKIT/xh018/cadence/v8_0/spectre/v8_0_1/lpmos/models/res/rsildn.scs
Reading file:  /pkg/xfab/XKIT/xh018/cadence/v8_0/spectre/v8_0_1/lpmos/models/res/rsildp.scs
Reading file:  /pkg/xfab/XKIT/xh018/cadence/v8_0/spectre/v8_0_1/lpmos/models/res/rsilnp1.scs
Reading file:  /pkg/xfab/XKIT/xh018/cadence/v8_0/spectre/v8_0_1/lpmos/models/res/rsilpp1.scs
Reading file:  /pkg/xfab/XKIT/xh018/cadence/v8_0/spectre/v8_0_1/lpmos/models/res/rsbdn.scs
Reading file:  /pkg/xfab/XKIT/xh018/cadence/v8_0/spectre/v8_0_1/lpmos/models/res/rsbdp.scs
Reading file:  /pkg/xfab/XKIT/xh018/cadence/v8_0/spectre/v8_0_1/lpmos/models/res/rsbdn3.scs
Reading file:  /pkg/xfab/XKIT/xh018/cadence/v8_0/spectre/v8_0_1/lpmos/models/res/rsbdp3.scs
Reading file:  /pkg/xfab/XKIT/xh018/cadence/v8_0/spectre/v8_0_1/lpmos/models/res/rsbnp1.scs
Reading file:  /pkg/xfab/XKIT/xh018/cadence/v8_0/spectre/v8_0_1/lpmos/models/res/rsbpp1.scs
Reading file:  /pkg/xfab/XKIT/xh018/cadence/v8_0/spectre/v8_0_1/lpmos/models/res/rsbpp1k1.scs
Reading file:  /pkg/xfab/XKIT/xh018/cadence/v8_0/spectre/v8_0_1/lpmos/models/res/rm1.scs
Reading file:  /pkg/xfab/XKIT/xh018/cadence/v8_0/spectre/v8_0_1/lpmos/models/res/rm2.scs
Reading file:  /pkg/xfab/XKIT/xh018/cadence/v8_0/spectre/v8_0_1/lpmos/models/res/rm3.scs
Reading file:  /pkg/xfab/XKIT/xh018/cadence/v8_0/spectre/v8_0_1/lpmos/models/res/rm4.scs
Reading file:  /pkg/xfab/XKIT/xh018/cadence/v8_0/spectre/v8_0_1/lpmos/models/res/rm5.scs
Reading file:  /pkg/xfab/XKIT/xh018/cadence/v8_0/spectre/v8_0_1/lpmos/models/res/rmtp.scs
Reading file:  /pkg/xfab/XKIT/xh018/cadence/v8_0/spectre/v8_0_1/lpmos/models/res/rmtpl.scs
Reading file:  /pkg/xfab/XKIT/xh018/cadence/v8_0/spectre/v8_0_1/lpmos/models/res/pfuse.scs
Reading file:  /pkg/xfab/XKIT/xh018/cadence/v8_0/spectre/v8_0_1/lpmos/models/res/s_res.scs
Time for NDB Parsing: CPU = 507.665 ms, elapsed = 703.891 ms.
Time accumulated: CPU = 547.451 ms, elapsed = 703.897 ms.
Peak resident memory used = 72.7 Mbytes.

Time for Elaboration: CPU = 23.645 ms, elapsed = 23.6471 ms.
Time accumulated: CPU = 571.244 ms, elapsed = 727.691 ms.
Peak resident memory used = 81.1 Mbytes.


Warning from spectre during hierarchy flattening.
    WARNING (SPECTRE-17101): The value 'psf' specified using the 'checklimitdest' option will no longer be supported in future releases.


Time for EDB Visiting: CPU = 958 us, elapsed = 957.966 us.
Time accumulated: CPU = 572.347 ms, elapsed = 728.792 ms.
Peak resident memory used = 81.8 Mbytes.


Notice from spectre during initial setup.
    Multithreading is disabled due to the size of the design being too small.


Global user options:
         psfversion = 1.1.0
            vabstol = 1e-06
            iabstol = 1e-12
               temp = 27
           homotopy = 7
              limit = delta
         compatible = spice2
               gmin = 1e-12
             rforce = 1
           maxnotes = 5
           maxwarns = 5
             digits = 5
               cols = 80
             pivrel = 0.001
           sensfile = ../psf/sens.output
     checklimitdest = psf
               save = allpub
             reltol = 0.0001
               tnom = 27
             scalem = 1
              scale = 1

Scoped user options:

Circuit inventory:
              nodes 2
             iprobe 1     
            bsim3v3 1     
            vsource 2     

Analysis and control statement inventory:
                 dc 1     
               info 6     

Output statements:
             .probe 0     
           .measure 0     
               save 1     


Notice from spectre during initial setup.
    Fast APS Enabled.

Time for parsing: CPU = 3.271 ms, elapsed = 7.44009 ms.
Time accumulated: CPU = 575.757 ms, elapsed = 736.371 ms.
Peak resident memory used = 83.4 Mbytes.

~~~~~~~~~~~~~~~~~~~~~~
Pre-Simulation Summary
~~~~~~~~~~~~~~~~~~~~~~
~~~~~~~~~~~~~~~~~~~~~~

**********************************
DC Analysis `dc': VGS = (0 -> 1.8)
**********************************

Opening the PSF file ../psf/dc.dc ...
Important parameter values:
    reltol = 100e-06
    abstol(V) = 1 uV
    abstol(I) = 1 pA
    temp = 27 C
    tnom = 27 C
    tempeffects = all
    gmindc = 1 pS
    rabsshort = 1 mOhm
    dc: VGS = 100e-03     (5.56 %), step = 100e-03      (5.56 %)
    dc: VGS = 200e-03     (11.1 %), step = 100e-03      (5.56 %)
    dc: VGS = 300e-03     (16.7 %), step = 100e-03      (5.56 %)
    dc: VGS = 400e-03     (22.2 %), step = 100e-03      (5.56 %)
    dc: VGS = 500e-03     (27.8 %), step = 100e-03      (5.56 %)
    dc: VGS = 600e-03     (33.3 %), step = 100e-03      (5.56 %)
    dc: VGS = 700e-03     (38.9 %), step = 100e-03      (5.56 %)
    dc: VGS = 800e-03     (44.4 %), step = 100e-03      (5.56 %)
    dc: VGS = 900e-03       (50 %), step = 100e-03      (5.56 %)
    dc: VGS = 1           (55.6 %), step = 100e-03      (5.56 %)
    dc: VGS = 1.1         (61.1 %), step = 100e-03      (5.56 %)
    dc: VGS = 1.2         (66.7 %), step = 100e-03      (5.56 %)
    dc: VGS = 1.3         (72.2 %), step = 100e-03      (5.56 %)
    dc: VGS = 1.4         (77.8 %), step = 100e-03      (5.56 %)
    dc: VGS = 1.5         (83.3 %), step = 100e-03      (5.56 %)
    dc: VGS = 1.6         (88.9 %), step = 100e-03      (5.56 %)
    dc: VGS = 1.7         (94.4 %), step = 100e-03      (5.56 %)
    dc: VGS = 1.8          (100 %), step = 100e-03      (5.56 %)

Maximum value achieved for any signal of each quantity: 
V: V(net2) = 1.8 V
I: I(M0:1) = 254.6 uA
DC simulation time: CPU = 18.742 ms, elapsed = 20.956 ms.

Notice from spectre at VGS = 1.8 during DC analysis `dc'.
    The value of parameter 'VGS' has been reset to the original value 1.

Total time required for dc analysis `dc': CPU = 18.818 ms, elapsed = 21.028 ms.
Time accumulated: CPU = 604.893 ms, elapsed = 767.719 ms.
Peak resident memory used = 84.9 Mbytes.

modelParameter: writing model parameter values to rawfile.

Opening the PSF file ../psf/modelParameter.info ...
element: writing instance parameter values to rawfile.

Opening the PSF file ../psf/element.info ...
outputParameter: writing output parameter values to rawfile.

Opening the PSF file ../psf/outputParameter.info ...
designParamVals: writing netlist parameters to rawfile.

Opening the PSFASCII file ../psf/designParamVals.info ...
primitives: writing primitives to rawfile.

Opening the PSFASCII file ../psf/primitives.info.primitives ...
subckts: writing subcircuits to rawfile.

Opening the PSFASCII file ../psf/subckts.info.subckts ...

Aggregate audit (4:42:30 PM, Wed Dec 4, 2019):
Time used: CPU = 635 ms, elapsed = 822 ms, util. = 77.2%.
Time spent in licensing: elapsed = 147 ms, percentage of total = 17.9%.
Peak memory used = 86.2 Mbytes.
Simulation started at: 4:42:29 PM, Wed Dec 4, 2019, ended at: 4:42:30 PM, Wed Dec 4, 2019, with elapsed time (wall clock): 822 ms.
spectre completes with 0 errors, 1 warning, and 4 notices.


********* LOG ENDS **************
**                             **
**                             **
********* LOG STARTS ************



Spectre (R) Circuit Simulator
Version 18.1.0.516.isr12 64bit -- 25 Oct 2019
Copyright (C) 1989-2019 Cadence Design Systems, Inc. All rights reserved worldwide. Cadence and Spectre are registered trademarks of Cadence Design Systems, Inc. All others are the property of their respective holders.

Includes RSA BSAFE(R) Cryptographic or Security Protocol Software from RSA Security, Inc.

User: saul   Host: s2424   HostID: ED824314   PID: 14111
Memory  available: 735.0558 MB  physical: 67.2864 GB
CPU Type: Intel(R) Xeon(R) CPU E5-2630 v3 @ 2.40GHz
        Socket: Processors [Frequency] (Hyperthreaded Processor)
        0:       0 [2645.7] ( 16 ),  1 [2600.4] ( 17 ),  2 [2607.7] ( 18 )
                 3 [2635.8] ( 19 ),  4 [2399.9] ( 20 ),  5 [2400.0] ( 21 )
                 6 [2094.9] ( 22 ),  7 [2650.2] ( 23 )
        1:       8 [2623.4] ( 24 ),  9 [2399.9] ( 25 ), 10 [2648.1] ( 26 )
                11 [2669.5] ( 27 ), 12 [2400.0] ( 28 ), 13 [2400.0] ( 29 )
                14 [2605.5] ( 30 ), 15 [2603.8] ( 31 )
        
System load averages (1min, 5min, 15min) : 1.1 %, 0.5 %, 0.5 %
Hyperthreading is enabled
HPC is enabled


Simulating `input.scs' on s2424 at 4:42:29 PM, Wed Dec 4, 2019 (process id: 14111).
Current working directory: /home/saul/projects/test_xfab1/Sim/CHARACTERIZATION/DC_BIAS_NMOS/adexl/results/data/Ocean.0/3/CHARACTERIZATION:DC_BIAS_NMOS:1/netlist
Command line:
    /pkg/cadence/installs/SPECTRE181/tools/bin/spectre -64 input.scs  \
        +escchars +log ../psf/spectre.out -format psfxl -raw ../psf  \
        ++aps +lqtimeout 900 -maxw 5 -maxn 5 -env ade -ahdllibdir  \
        /home/saul/projects/test_xfab1/Sim/CHARACTERIZATION/DC_BIAS_NMOS/adexl/results/data/Ocean.0/sharedData/Job30/ahdl/input.ahdlSimDB  \
        +logstatus

Loading /pkg/cadence/installs/SPECTRE181/tools.lnx86/cmi/lib/64bit/5.0/libinfineon_sh.so ...
Loading /pkg/cadence/installs/SPECTRE181/tools.lnx86/cmi/lib/64bit/5.0/libphilips_o_sh.so ...
Loading /pkg/cadence/installs/SPECTRE181/tools.lnx86/cmi/lib/64bit/5.0/libphilips_sh.so ...
Loading /pkg/cadence/installs/SPECTRE181/tools.lnx86/cmi/lib/64bit/5.0/libsparam_sh.so ...
Loading /pkg/cadence/installs/SPECTRE181/tools.lnx86/cmi/lib/64bit/5.0/libstmodels_sh.so ...
Reading file:  /home/saul/projects/test_xfab1/Sim/CHARACTERIZATION/DC_BIAS_NMOS/adexl/results/data/Ocean.0/3/CHARACTERIZATION:DC_BIAS_NMOS:1/netlist/input.scs
Reading file:  /pkg/cadence/installs/SPECTRE181/tools.lnx86/spectre/etc/configs/spectre.cfg
Reading file:  /pkg/xfab/XKIT/xh018/cadence/v8_0/spectre/v8_0_1/lpmos/config.scs
Reading file:  /pkg/xfab/XKIT/xh018/cadence/v8_0/spectre/v8_0_1/lpmos/param.scs
Reading file:  /pkg/xfab/XKIT/xh018/cadence/v8_0/spectre/v8_0_1/lpmos/bip.scs
Reading file:  /pkg/xfab/XKIT/xh018/cadence/v8_0/spectre/v8_0_1/lpmos/models/bip/tm_bip.scs
Reading file:  /pkg/xfab/XKIT/xh018/cadence/v8_0/spectre/v8_0_1/lpmos/models/bip/qpva.scs
Reading file:  /pkg/xfab/XKIT/xh018/cadence/v8_0/spectre/v8_0_1/lpmos/models/bip/qpvb.scs
Reading file:  /pkg/xfab/XKIT/xh018/cadence/v8_0/spectre/v8_0_1/lpmos/models/bip/qpvc.scs
Reading file:  /pkg/xfab/XKIT/xh018/cadence/v8_0/spectre/v8_0_1/lpmos/models/bip/qpva3.scs
Reading file:  /pkg/xfab/XKIT/xh018/cadence/v8_0/spectre/v8_0_1/lpmos/models/bip/qpvb3.scs
Reading file:  /pkg/xfab/XKIT/xh018/cadence/v8_0/spectre/v8_0_1/lpmos/models/bip/qpvc3.scs
Reading file:  /pkg/xfab/XKIT/xh018/cadence/v8_0/spectre/v8_0_1/lpmos/models/bip/qnva.scs
Reading file:  /pkg/xfab/XKIT/xh018/cadence/v8_0/spectre/v8_0_1/lpmos/models/bip/qnvb.scs
Reading file:  /pkg/xfab/XKIT/xh018/cadence/v8_0/spectre/v8_0_1/lpmos/models/bip/qnvb_npn.scs
Reading file:  /pkg/xfab/XKIT/xh018/cadence/v8_0/spectre/v8_0_1/lpmos/models/bip/qnvb_pnp.scs
Reading file:  /pkg/xfab/XKIT/xh018/cadence/v8_0/spectre/v8_0_1/lpmos/models/bip/qnvc.scs
Reading file:  /pkg/xfab/XKIT/xh018/cadence/v8_0/spectre/v8_0_1/lpmos/models/bip/qnvc_npn.scs
Reading file:  /pkg/xfab/XKIT/xh018/cadence/v8_0/spectre/v8_0_1/lpmos/models/bip/qnvc_pnp.scs
Reading file:  /pkg/xfab/XKIT/xh018/cadence/v8_0/spectre/v8_0_1/lpmos/models/bip/qpvhscr.scs
[...]
Reading file:  /pkg/xfab/XKIT/xh018/cadence/v8_0/spectre/v8_0_1/lpmos/models/mos/nd3.scs
Reading file:  /pkg/xfab/XKIT/xh018/cadence/v8_0/spectre/v8_0_1/lpmos/models/mos/nd3_mos1.scs
Reading file:  /pkg/xfab/XKIT/xh018/cadence/v8_0/spectre/v8_0_1/lpmos/models/mos/nd3_mos2.scs
Reading file:  /pkg/xfab/XKIT/xh018/cadence/v8_0/spectre/v8_0_1/lpmos/models/mos/nd3i.scs
Reading file:  /pkg/xfab/XKIT/xh018/cadence/v8_0/spectre/v8_0_1/lpmos/models/mos/nd3i_mos1.scs
Reading file:  /pkg/xfab/XKIT/xh018/cadence/v8_0/spectre/v8_0_1/lpmos/models/mos/nd3i_mos2.scs
Reading file:  /pkg/xfab/XKIT/xh018/cadence/v8_0/spectre/v8_0_1/lpmos/models/mos/nd3i_6.scs
Reading file:  /pkg/xfab/XKIT/xh018/cadence/v8_0/spectre/v8_0_1/lpmos/models/mos/nd3i_m_6.scs
Reading file:  /pkg/xfab/XKIT/xh018/cadence/v8_0/spectre/v8_0_1/lpmos/models/mos/nelna.scs
Reading file:  /pkg/xfab/XKIT/xh018/cadence/v8_0/spectre/v8_0_1/lpmos/models/mos/nelnai.scs
Reading file:  /pkg/xfab/XKIT/xh018/cadence/v8_0/spectre/v8_0_1/lpmos/models/mos/nelnai_6.scs
Reading file:  /pkg/xfab/XKIT/xh018/cadence/v8_0/spectre/v8_0_1/lpmos/models/mos/nelnai_m_6.scs
Reading file:  /pkg/xfab/XKIT/xh018/cadence/v8_0/spectre/v8_0_1/lpmos/models/mos/ne3lna.scs
Reading file:  /pkg/xfab/XKIT/xh018/cadence/v8_0/spectre/v8_0_1/lpmos/models/mos/ne3lnai.scs
Reading file:  /pkg/xfab/XKIT/xh018/cadence/v8_0/spectre/v8_0_1/lpmos/models/mos/ne3lnai_6.scs
Reading file:  /pkg/xfab/XKIT/xh018/cadence/v8_0/spectre/v8_0_1/lpmos/models/mos/ne3lnai_m_6.scs
Reading file:  /pkg/xfab/XKIT/xh018/cadence/v8_0/spectre/v8_0_1/lpmos/models/mos/pe3lna.scs
Reading file:  /pkg/xfab/XKIT/xh018/cadence/v8_0/spectre/v8_0_1/lpmos/models/mos/pe3lna_5.scs
Reading file:  /pkg/xfab/XKIT/xh018/cadence/v8_0/spectre/v8_0_1/lpmos/models/mos/pe3lnai.scs
Reading file:  /pkg/xfab/XKIT/xh018/cadence/v8_0/spectre/v8_0_1/lpmos/models/mos/pe3lnai_5.scs
Reading file:  /pkg/xfab/XKIT/xh018/cadence/v8_0/spectre/v8_0_1/lpmos/models/mos/pe3lnai_m_5.scs
Reading file:  /pkg/xfab/XKIT/xh018/cadence/v8_0/spectre/v8_0_1/lpmos/models/mos/nmma.scs
Reading file:  /pkg/xfab/XKIT/xh018/cadence/v8_0/spectre/v8_0_1/lpmos/models/mos/jf_nmma.scs
Reading file:  /pkg/xfab/XKIT/xh018/cadence/v8_0/spectre/v8_0_1/lpmos/models/mos/nmma_bjt.scs
Reading file:  /pkg/xfab/XKIT/xh018/cadence/v8_0/spectre/v8_0_1/lpmos/models/mos/pmma.scs
Reading file:  /pkg/xfab/XKIT/xh018/cadence/v8_0/spectre/v8_0_1/lpmos/models/mos/jf_pmma.scs
Reading file:  /pkg/xfab/XKIT/xh018/cadence/v8_0/spectre/v8_0_1/lpmos/models/mos/pmma_bjt.scs
Reading file:  /pkg/xfab/XKIT/xh018/cadence/v8_0/spectre/v8_0_1/lpmos/models/mos/nedi.scs
Reading file:  /pkg/xfab/XKIT/xh018/cadence/v8_0/spectre/v8_0_1/lpmos/models/mos/nedi_bjt.scs
Reading file:  /pkg/xfab/XKIT/xh018/cadence/v8_0/spectre/v8_0_1/lpmos/models/mos/nedia.scs
Reading file:  /pkg/xfab/XKIT/xh018/cadence/v8_0/spectre/v8_0_1/lpmos/models/mos/nedia_bjt.scs
Reading file:  /pkg/xfab/XKIT/xh018/cadence/v8_0/spectre/v8_0_1/lpmos/models/mos/ped2.scs
Reading file:  /pkg/xfab/XKIT/xh018/cadence/v8_0/spectre/v8_0_1/lpmos/models/mos/ped2_bjt.scs
Reading file:  /pkg/xfab/XKIT/xh018/cadence/v8_0/spectre/v8_0_1/lpmos/models/mos/ped.scs
Reading file:  /pkg/xfab/XKIT/xh018/cadence/v8_0/spectre/v8_0_1/lpmos/models/mos/ped_bjt.scs
Reading file:  /pkg/xfab/XKIT/xh018/cadence/v8_0/spectre/v8_0_1/lpmos/models/mos/nhv.scs
Reading file:  /pkg/xfab/XKIT/xh018/cadence/v8_0/spectre/v8_0_1/lpmos/models/mos/nhv_mos2.scs
Reading file:  /pkg/xfab/XKIT/xh018/cadence/v8_0/spectre/v8_0_1/lpmos/models/mos/nhv_bjt.scs
Reading file:  /pkg/xfab/XKIT/xh018/cadence/v8_0/spectre/v8_0_1/lpmos/models/mos/nhhv.scs
Reading file:  /pkg/xfab/XKIT/xh018/cadence/v8_0/spectre/v8_0_1/lpmos/models/mos/nhhv_mos2.scs
Reading file:  /pkg/xfab/XKIT/xh018/cadence/v8_0/spectre/v8_0_1/lpmos/models/mos/nhhv_bjt.scs
Reading file:  /pkg/xfab/XKIT/xh018/cadence/v8_0/spectre/v8_0_1/lpmos/models/mos/nmmc.scs
Reading file:  /pkg/xfab/XKIT/xh018/cadence/v8_0/spectre/v8_0_1/lpmos/models/mos/nmmc_mos2.scs
Reading file:  /pkg/xfab/XKIT/xh018/cadence/v8_0/spectre/v8_0_1/lpmos/models/mos/nmmc_bjt.scs
Reading file:  /pkg/xfab/XKIT/xh018/cadence/v8_0/spectre/v8_0_1/lpmos/models/mos/nmmd.scs
Reading file:  /pkg/xfab/XKIT/xh018/cadence/v8_0/spectre/v8_0_1/lpmos/models/mos/nmmd_mos2.scs
Reading file:  /pkg/xfab/XKIT/xh018/cadence/v8_0/spectre/v8_0_1/lpmos/models/mos/nmmd_bjt.scs
Reading file:  /pkg/xfab/XKIT/xh018/cadence/v8_0/spectre/v8_0_1/lpmos/models/mos/nmc.scs
Reading file:  /pkg/xfab/XKIT/xh018/cadence/v8_0/spectre/v8_0_1/lpmos/models/mos/nmc_mos2.scs
Reading file:  /pkg/xfab/XKIT/xh018/cadence/v8_0/spectre/v8_0_1/lpmos/models/mos/nmc_bjt.scs
Reading file:  /pkg/xfab/XKIT/xh018/cadence/v8_0/spectre/v8_0_1/lpmos/models/mos/nma.scs
Reading file:  /pkg/xfab/XKIT/xh018/cadence/v8_0/spectre/v8_0_1/lpmos/models/mos/nma_bjt.scs
Reading file:  /pkg/xfab/XKIT/xh018/cadence/v8_0/spectre/v8_0_1/lpmos/models/mos/phv.scs
Reading file:  /pkg/xfab/XKIT/xh018/cadence/v8_0/spectre/v8_0_1/lpmos/models/mos/phv_mos2.scs
Reading file:  /pkg/xfab/XKIT/xh018/cadence/v8_0/spectre/v8_0_1/lpmos/models/mos/phv_bjt.scs
Reading file:  /pkg/xfab/XKIT/xh018/cadence/v8_0/spectre/v8_0_1/lpmos/models/mos/phhv.scs
Reading file:  /pkg/xfab/XKIT/xh018/cadence/v8_0/spectre/v8_0_1/lpmos/models/mos/phhv_mos2.scs
Reading file:  /pkg/xfab/XKIT/xh018/cadence/v8_0/spectre/v8_0_1/lpmos/models/mos/phhv_bjt.scs
Reading file:  /pkg/xfab/XKIT/xh018/cadence/v8_0/spectre/v8_0_1/lpmos/models/mos/pmc.scs
Reading file:  /pkg/xfab/XKIT/xh018/cadence/v8_0/spectre/v8_0_1/lpmos/models/mos/pmc_mos2.scs
Reading file:  /pkg/xfab/XKIT/xh018/cadence/v8_0/spectre/v8_0_1/lpmos/models/mos/pmc_bjt.scs
Reading file:  /pkg/xfab/XKIT/xh018/cadence/v8_0/spectre/v8_0_1/lpmos/models/mos/pmmc.scs
Reading file:  /pkg/xfab/XKIT/xh018/cadence/v8_0/spectre/v8_0_1/lpmos/models/mos/pmmc_mos2.scs
Reading file:  /pkg/xfab/XKIT/xh018/cadence/v8_0/spectre/v8_0_1/lpmos/models/mos/pmmc_bjt.scs
Reading file:  /pkg/xfab/XKIT/xh018/cadence/v8_0/spectre/v8_0_1/lpmos/models/mos/pma.scs
Reading file:  /pkg/xfab/XKIT/xh018/cadence/v8_0/spectre/v8_0_1/lpmos/models/mos/pma_bjt.scs
Reading file:  /pkg/xfab/XKIT/xh018/cadence/v8_0/spectre/v8_0_1/lpmos/models/mos/pmb.scs
Reading file:  /pkg/xfab/XKIT/xh018/cadence/v8_0/spectre/v8_0_1/lpmos/models/mos/nesvt.scs
Reading file:  /pkg/xfab/XKIT/xh018/cadence/v8_0/spectre/v8_0_1/lpmos/models/mos/nesvti.scs
Reading file:  /pkg/xfab/XKIT/xh018/cadence/v8_0/spectre/v8_0_1/lpmos/models/mos/nesvti_6.scs
Reading file:  /pkg/xfab/XKIT/xh018/cadence/v8_0/spectre/v8_0_1/lpmos/models/mos/nesvti_m_6.scs
Reading file:  /pkg/xfab/XKIT/xh018/cadence/v8_0/spectre/v8_0_1/lpmos/models/mos/pesvt.scs
Reading file:  /pkg/xfab/XKIT/xh018/cadence/v8_0/spectre/v8_0_1/lpmos/models/mos/pesvt_5.scs
Reading file:  /pkg/xfab/XKIT/xh018/cadence/v8_0/spectre/v8_0_1/lpmos/models/mos/pesvti.scs
Reading file:  /pkg/xfab/XKIT/xh018/cadence/v8_0/spectre/v8_0_1/lpmos/models/mos/pesvti_5.scs
Reading file:  /pkg/xfab/XKIT/xh018/cadence/v8_0/spectre/v8_0_1/lpmos/models/mos/pesvti_m_5.scs
Reading file:  /pkg/xfab/XKIT/xh018/cadence/v8_0/spectre/v8_0_1/lpmos/models/mos/nhvd.scs
Reading file:  /pkg/xfab/XKIT/xh018/cadence/v8_0/spectre/v8_0_1/lpmos/models/mos/nhvd_bjt.scs
Reading file:  /pkg/xfab/XKIT/xh018/cadence/v8_0/spectre/v8_0_1/lpmos/models/mos/nhhvd.scs
Reading file:  /pkg/xfab/XKIT/xh018/cadence/v8_0/spectre/v8_0_1/lpmos/models/mos/nhhvd_bjt.scs
Reading file:  /pkg/xfab/XKIT/xh018/cadence/v8_0/spectre/v8_0_1/lpmos/photo.scs
Reading file:  /pkg/xfab/XKIT/xh018/cadence/v8_0/spectre/v8_0_1/lpmos/models/photo/tm_pho.scs
Reading file:  /pkg/xfab/XKIT/xh018/cadence/v8_0/spectre/v8_0_1/lpmos/models/photo/dphoa.scs
Reading file:  /pkg/xfab/XKIT/xh018/cadence/v8_0/spectre/v8_0_1/lpmos/models/photo/dpho.va
Reading link:  /pkg/cadence/installs/SPECTRE181/tools.lnx86/spectre/etc/ahdl/constants.h
Reading file:  /pkg/cadence/installs/SPECTRE181/tools.lnx86/spectre/etc/ahdl/constants.vams
Reading link:  /pkg/cadence/installs/SPECTRE181/tools.lnx86/spectre/etc/ahdl/discipline.h
Reading file:  /pkg/cadence/installs/SPECTRE181/tools.lnx86/spectre/etc/ahdl/disciplines.vams
Reading file:  /pkg/xfab/XKIT/xh018/cadence/v8_0/spectre/v8_0_1/lpmos/models/photo/dphob.scs
Reading file:  /pkg/xfab/XKIT/xh018/cadence/v8_0/spectre/v8_0_1/lpmos/models/photo/dphoc.scs
Reading file:  /pkg/xfab/XKIT/xh018/cadence/v8_0/spectre/v8_0_1/lpmos/models/photo/iphoto_uv.va
Reading file:  /pkg/xfab/XKIT/xh018/cadence/v8_0/spectre/v8_0_1/lpmos/models/photo/dphoc_cat.scs
Reading file:  /pkg/xfab/XKIT/xh018/cadence/v8_0/spectre/v8_0_1/lpmos/models/photo/dphoc0.scs
Reading file:  /pkg/xfab/XKIT/xh018/cadence/v8_0/spectre/v8_0_1/lpmos/models/photo/dphoc0_cat.scs
Reading file:  /pkg/xfab/XKIT/xh018/cadence/v8_0/spectre/v8_0_1/lpmos/models/photo/dphocfp.scs
Reading file:  /pkg/xfab/XKIT/xh018/cadence/v8_0/spectre/v8_0_1/lpmos/models/photo/dphocfp_cat.scs
Reading file:  /pkg/xfab/XKIT/xh018/cadence/v8_0/spectre/v8_0_1/lpmos/models/photo/dphod.scs
Reading file:  /pkg/xfab/XKIT/xh018/cadence/v8_0/spectre/v8_0_1/lpmos/models/photo/dphod_an1.scs
Reading file:  /pkg/xfab/XKIT/xh018/cadence/v8_0/spectre/v8_0_1/lpmos/models/photo/dphod_an2.scs
Reading file:  /pkg/xfab/XKIT/xh018/cadence/v8_0/spectre/v8_0_1/lpmos/models/photo/dphod0.scs
Reading file:  /pkg/xfab/XKIT/xh018/cadence/v8_0/spectre/v8_0_1/lpmos/models/photo/dphod0_an1.scs
Reading file:  /pkg/xfab/XKIT/xh018/cadence/v8_0/spectre/v8_0_1/lpmos/models/photo/dphod0_an2.scs
Reading file:  /pkg/xfab/XKIT/xh018/cadence/v8_0/spectre/v8_0_1/lpmos/models/photo/dphodfp.scs
Reading file:  /pkg/xfab/XKIT/xh018/cadence/v8_0/spectre/v8_0_1/lpmos/models/photo/dphodfp_an1.scs
Reading file:  /pkg/xfab/XKIT/xh018/cadence/v8_0/spectre/v8_0_1/lpmos/models/photo/dphodfp_an2.scs
Reading file:  /pkg/xfab/XKIT/xh018/cadence/v8_0/spectre/v8_0_1/lpmos/models/photo/dspada.scs
Reading file:  /pkg/xfab/XKIT/xh018/cadence/v8_0/spectre/v8_0_1/lpmos/models/photo/ispad.va
Reading file:  /pkg/xfab/XKIT/xh018/cadence/v8_0/spectre/v8_0_1/lpmos/models/photo/dspada_cat.scs
Reading file:  /pkg/xfab/XKIT/xh018/cadence/v8_0/spectre/v8_0_1/lpmos/models/photo/dspada0.scs
Reading file:  /pkg/xfab/XKIT/xh018/cadence/v8_0/spectre/v8_0_1/lpmos/models/photo/dapda.scs
Reading file:  /pkg/xfab/XKIT/xh018/cadence/v8_0/spectre/v8_0_1/lpmos/models/photo/iphoto_apd.va
Reading file:  /pkg/xfab/XKIT/xh018/cadence/v8_0/spectre/v8_0_1/lpmos/models/photo/dapda_cat.scs
Reading file:  /pkg/xfab/XKIT/xh018/cadence/v8_0/spectre/v8_0_1/lpmos/models/photo/dapda0.scs
Reading file:  /pkg/xfab/XKIT/xh018/cadence/v8_0/spectre/v8_0_1/lpmos/res.scs
Reading file:  /pkg/xfab/XKIT/xh018/cadence/v8_0/spectre/v8_0_1/lpmos/models/res/tm_res.scs
Reading file:  /pkg/xfab/XKIT/xh018/cadence/v8_0/spectre/v8_0_1/lpmos/models/res/rdn.scs
Reading file:  /pkg/xfab/XKIT/xh018/cadence/v8_0/spectre/v8_0_1/lpmos/models/res/rdn_esd.scs
Reading file:  /pkg/xfab/XKIT/xh018/cadence/v8_0/spectre/v8_0_1/lpmos/models/res/rdp.scs
Reading file:  /pkg/xfab/XKIT/xh018/cadence/v8_0/spectre/v8_0_1/lpmos/models/res/rdp_io.scs
Reading file:  /pkg/xfab/XKIT/xh018/cadence/v8_0/spectre/v8_0_1/lpmos/models/res/rdp_esd.scs
Reading file:  /pkg/xfab/XKIT/xh018/cadence/v8_0/spectre/v8_0_1/lpmos/models/res/rnw.scs
Reading file:  /pkg/xfab/XKIT/xh018/cadence/v8_0/spectre/v8_0_1/lpmos/models/res/rnw_scr.scs
Reading file:  /pkg/xfab/XKIT/xh018/cadence/v8_0/spectre/v8_0_1/lpmos/models/res/rdn3.scs
Reading file:  /pkg/xfab/XKIT/xh018/cadence/v8_0/spectre/v8_0_1/lpmos/models/res/rdp3.scs
Reading file:  /pkg/xfab/XKIT/xh018/cadence/v8_0/spectre/v8_0_1/lpmos/models/res/rnw3.scs
Reading file:  /pkg/xfab/XKIT/xh018/cadence/v8_0/spectre/v8_0_1/lpmos/models/res/rnw3_scr.scs
Reading file:  /pkg/xfab/XKIT/xh018/cadence/v8_0/spectre/v8_0_1/lpmos/models/res/rdnwmv.scs
Reading file:  /pkg/xfab/XKIT/xh018/cadence/v8_0/spectre/v8_0_1/lpmos/models/res/rnp1.scs
Reading file:  /pkg/xfab/XKIT/xh018/cadence/v8_0/spectre/v8_0_1/lpmos/models/res/rnp1_3.scs
Reading file:  /pkg/xfab/XKIT/xh018/cadence/v8_0/spectre/v8_0_1/lpmos/models/res/rpp1.scs
Reading file:  /pkg/xfab/XKIT/xh018/cadence/v8_0/spectre/v8_0_1/lpmos/models/res/rpp1_3.scs
Reading file:  /pkg/xfab/XKIT/xh018/cadence/v8_0/spectre/v8_0_1/lpmos/models/res/rpp1s.scs
Reading file:  /pkg/xfab/XKIT/xh018/cadence/v8_0/spectre/v8_0_1/lpmos/models/res/rpp1s_3.scs
Reading file:  /pkg/xfab/XKIT/xh018/cadence/v8_0/spectre/v8_0_1/lpmos/models/res/rnp1h.scs
Reading file:  /pkg/xfab/XKIT/xh018/cadence/v8_0/spectre/v8_0_1/lpmos/models/res/rnp1h_3.scs
Reading file:  /pkg/xfab/XKIT/xh018/cadence/v8_0/spectre/v8_0_1/lpmos/models/res/rpp1k1.scs
Reading file:  /pkg/xfab/XKIT/xh018/cadence/v8_0/spectre/v8_0_1/lpmos/models/res/rpp1k1_3.scs
Reading file:  /pkg/xfab/XKIT/xh018/cadence/v8_0/spectre/v8_0_1/lpmos/models/res/rctdn.scs
Reading file:  /pkg/xfab/XKIT/xh018/cadence/v8_0/spectre/v8_0_1/lpmos/models/res/rctdp.scs
Reading file:  /pkg/xfab/XKIT/xh018/cadence/v8_0/spectre/v8_0_1/lpmos/models/res/rctp1.scs
Reading file:  /pkg/xfab/XKIT/xh018/cadence/v8_0/spectre/v8_0_1/lpmos/models/res/rsildn.scs
Reading file:  /pkg/xfab/XKIT/xh018/cadence/v8_0/spectre/v8_0_1/lpmos/models/res/rsildp.scs
Reading file:  /pkg/xfab/XKIT/xh018/cadence/v8_0/spectre/v8_0_1/lpmos/models/res/rsilnp1.scs
Reading file:  /pkg/xfab/XKIT/xh018/cadence/v8_0/spectre/v8_0_1/lpmos/models/res/rsilpp1.scs
Reading file:  /pkg/xfab/XKIT/xh018/cadence/v8_0/spectre/v8_0_1/lpmos/models/res/rsbdn.scs
Reading file:  /pkg/xfab/XKIT/xh018/cadence/v8_0/spectre/v8_0_1/lpmos/models/res/rsbdp.scs
Reading file:  /pkg/xfab/XKIT/xh018/cadence/v8_0/spectre/v8_0_1/lpmos/models/res/rsbdn3.scs
Reading file:  /pkg/xfab/XKIT/xh018/cadence/v8_0/spectre/v8_0_1/lpmos/models/res/rsbdp3.scs
Reading file:  /pkg/xfab/XKIT/xh018/cadence/v8_0/spectre/v8_0_1/lpmos/models/res/rsbnp1.scs
Reading file:  /pkg/xfab/XKIT/xh018/cadence/v8_0/spectre/v8_0_1/lpmos/models/res/rsbpp1.scs
Reading file:  /pkg/xfab/XKIT/xh018/cadence/v8_0/spectre/v8_0_1/lpmos/models/res/rsbpp1k1.scs
Reading file:  /pkg/xfab/XKIT/xh018/cadence/v8_0/spectre/v8_0_1/lpmos/models/res/rm1.scs
Reading file:  /pkg/xfab/XKIT/xh018/cadence/v8_0/spectre/v8_0_1/lpmos/models/res/rm2.scs
Reading file:  /pkg/xfab/XKIT/xh018/cadence/v8_0/spectre/v8_0_1/lpmos/models/res/rm3.scs
Reading file:  /pkg/xfab/XKIT/xh018/cadence/v8_0/spectre/v8_0_1/lpmos/models/res/rm4.scs
Reading file:  /pkg/xfab/XKIT/xh018/cadence/v8_0/spectre/v8_0_1/lpmos/models/res/rm5.scs
Reading file:  /pkg/xfab/XKIT/xh018/cadence/v8_0/spectre/v8_0_1/lpmos/models/res/rmtp.scs
Reading file:  /pkg/xfab/XKIT/xh018/cadence/v8_0/spectre/v8_0_1/lpmos/models/res/rmtpl.scs
Reading file:  /pkg/xfab/XKIT/xh018/cadence/v8_0/spectre/v8_0_1/lpmos/models/res/pfuse.scs
Reading file:  /pkg/xfab/XKIT/xh018/cadence/v8_0/spectre/v8_0_1/lpmos/models/res/s_res.scs
Time for NDB Parsing: CPU = 420.083 ms, elapsed = 436.985 ms.
Time accumulated: CPU = 479.67 ms, elapsed = 436.994 ms.
Peak resident memory used = 69.1 Mbytes.

Time for Elaboration: CPU = 21.755 ms, elapsed = 21.7562 ms.
Time accumulated: CPU = 501.554 ms, elapsed = 458.877 ms.
Peak resident memory used = 78.3 Mbytes.


Warning from spectre during hierarchy flattening.
    WARNING (SPECTRE-17101): The value 'psf' specified using the 'checklimitdest' option will no longer be supported in future releases.


Time for EDB Visiting: CPU = 819 us, elapsed = 818.968 us.
Time accumulated: CPU = 502.503 ms, elapsed = 459.826 ms.
Peak resident memory used = 79 Mbytes.


Notice from spectre during initial setup.
    Multithreading is disabled due to the size of the design being too small.


Global user options:
         psfversion = 1.1.0
            vabstol = 1e-06
            iabstol = 1e-12
               temp = 27
           homotopy = 7
              limit = delta
         compatible = spice2
               gmin = 1e-12
             rforce = 1
           maxnotes = 5
           maxwarns = 5
             digits = 5
               cols = 80
             pivrel = 0.001
           sensfile = ../psf/sens.output
     checklimitdest = psf
               save = allpub
             reltol = 0.0001
               tnom = 27
             scalem = 1
              scale = 1

Scoped user options:

Circuit inventory:
              nodes 2
             iprobe 1     
            bsim3v3 1     
            vsource 2     

Analysis and control statement inventory:
                 dc 1     
               info 6     

Output statements:
             .probe 0     
           .measure 0     
               save 1     


Notice from spectre during initial setup.
    Fast APS Enabled.

Time for parsing: CPU = 3.196 ms, elapsed = 7.15494 ms.
Time accumulated: CPU = 505.812 ms, elapsed = 467.093 ms.
Peak resident memory used = 80.7 Mbytes.

~~~~~~~~~~~~~~~~~~~~~~
Pre-Simulation Summary
~~~~~~~~~~~~~~~~~~~~~~
~~~~~~~~~~~~~~~~~~~~~~

**********************************
DC Analysis `dc': VGS = (0 -> 1.8)
**********************************

Opening the PSF file ../psf/dc.dc ...
Important parameter values:
    reltol = 100e-06
    abstol(V) = 1 uV
    abstol(I) = 1 pA
    temp = 27 C
    tnom = 27 C
    tempeffects = all
    gmindc = 1 pS
    rabsshort = 1 mOhm
    dc: VGS = 100e-03     (5.56 %), step = 100e-03      (5.56 %)
    dc: VGS = 200e-03     (11.1 %), step = 100e-03      (5.56 %)
    dc: VGS = 300e-03     (16.7 %), step = 100e-03      (5.56 %)
    dc: VGS = 400e-03     (22.2 %), step = 100e-03      (5.56 %)
    dc: VGS = 500e-03     (27.8 %), step = 100e-03      (5.56 %)
    dc: VGS = 600e-03     (33.3 %), step = 100e-03      (5.56 %)
    dc: VGS = 700e-03     (38.9 %), step = 100e-03      (5.56 %)
    dc: VGS = 800e-03     (44.4 %), step = 100e-03      (5.56 %)
    dc: VGS = 900e-03       (50 %), step = 100e-03      (5.56 %)
    dc: VGS = 1           (55.6 %), step = 100e-03      (5.56 %)
    dc: VGS = 1.1         (61.1 %), step = 100e-03      (5.56 %)
    dc: VGS = 1.2         (66.7 %), step = 100e-03      (5.56 %)
    dc: VGS = 1.3         (72.2 %), step = 100e-03      (5.56 %)
    dc: VGS = 1.4         (77.8 %), step = 100e-03      (5.56 %)
    dc: VGS = 1.5         (83.3 %), step = 100e-03      (5.56 %)
    dc: VGS = 1.6         (88.9 %), step = 100e-03      (5.56 %)
    dc: VGS = 1.7         (94.4 %), step = 100e-03      (5.56 %)
    dc: VGS = 1.8          (100 %), step = 100e-03      (5.56 %)

Maximum value achieved for any signal of each quantity: 
V: V(net3) = 1.8 V
I: I(M0:1) = 948.8 uA
DC simulation time: CPU = 10.328 ms, elapsed = 13.4809 ms.

Notice from spectre at VGS = 1.8 during DC analysis `dc'.
    The value of parameter 'VGS' has been reset to the original value 1.

Total time required for dc analysis `dc': CPU = 10.375 ms, elapsed = 13.525 ms.
Time accumulated: CPU = 521.673 ms, elapsed = 486.107 ms.
Peak resident memory used = 82.2 Mbytes.

modelParameter: writing model parameter values to rawfile.

Opening the PSF file ../psf/modelParameter.info ...
element: writing instance parameter values to rawfile.

Opening the PSF file ../psf/element.info ...
outputParameter: writing output parameter values to rawfile.

Opening the PSF file ../psf/outputParameter.info ...
designParamVals: writing netlist parameters to rawfile.

Opening the PSFASCII file ../psf/designParamVals.info ...
primitives: writing primitives to rawfile.

Opening the PSFASCII file ../psf/primitives.info.primitives ...
subckts: writing subcircuits to rawfile.

Opening the PSFASCII file ../psf/subckts.info.subckts ...

Aggregate audit (4:42:32 PM, Wed Dec 4, 2019):
Time used: CPU = 544 ms, elapsed = 532 ms, util. = 102%.
Time spent in licensing: elapsed = 127 ms, percentage of total = 23.9%.
Peak memory used = 83.5 Mbytes.
Simulation started at: 4:42:31 PM, Wed Dec 4, 2019, ended at: 4:42:32 PM, Wed Dec 4, 2019, with elapsed time (wall clock): 532 ms.
spectre completes with 0 errors, 1 warning, and 4 notices.


********* LOG ENDS **************
**                             **
